@<TRIPOS>MOLECULE
3R137
137   139    1
SMALL
USER_CHARGES


@<TRIPOS>ATOM
      1 CA         25.3978   -5.1360    0.9800 C.3       0 UNK        -0.2020 
      2 C          26.6987   -5.1440    0.1809 C.2       0 UNK         0.4855 
      3 O          27.2390   -6.2177   -0.0757 O.2       0 UNK        -0.5197 
      4 N          27.2491   -3.9919   -0.2304 N.am      1 UNK        -0.4892 
      5 CA         26.7330   -2.6269   -0.0375 C.3       1 UNK         0.0835 
      6 C6         27.7647   -1.5546   -0.4627 C.3       12 UNK        -0.0855 
      7 S7         29.3707   -1.7011    0.3824 S.3       12 UNK        -0.2931 
      8 C8         30.3723   -0.5621   -0.6351 C.3       12 UNK         0.0378 
      9 C9         31.1466   -1.2266   -1.7751 C.ar      12 UNK        -0.0802 
     10 C10        32.3776   -0.6787   -2.1484 C.ar      12 UNK        -0.0944 
     11 C11        33.1453   -1.2594   -3.1607 C.ar      12 UNK        -0.0787 
     12 C12        32.6735   -2.4023   -3.8097 C.ar      12 UNK        -0.0862 
     13 C13        31.4285   -2.9434   -3.4782 C.ar      12 UNK        -0.0733 
     14 C14        30.6703   -2.3527   -2.4621 C.ar      12 UNK        -0.0832 
     15 C15        30.9285   -4.1881   -4.1982 C.3       12 UNK         0.0240 
     16 S16        30.3816   -3.8268   -5.8974 S.3       12 UNK        -0.2522 
     17 C17        28.6762   -3.2314   -5.6378 C.3       12 UNK        -0.0967 
     18 CA         28.2759   -2.1546   -6.6801 C.3       5 UNK         0.0660 
     19 N          26.8332   -2.1214   -6.9099 N.am      5 UNK        -0.4015 
     20 C          26.2664   -1.7450   -8.0642 C.2       4 UNK         0.4946 
     21 O          26.8996   -1.4179   -9.0665 O.2       4 UNK        -0.5353 
     22 CA         24.7291   -1.6783   -8.0945 C.3       4 UNK         0.0277 
     23 CB         24.1312   -3.0783   -8.3063 C.3       4 UNK        -0.1981 
     24 N          24.1621   -1.0791   -6.8872 N.am      4 UNK        -0.4209 
     25 C          24.4644    0.1387   -6.4138 C.2       3 UNK         0.4942 
     26 O          25.1873    0.9444   -7.0010 O.2       3 UNK        -0.5208 
     27 CA         23.9217    0.4915   -5.0186 C.3       3 UNK         0.0250 
     28 CB         22.6149    1.2902   -5.1390 C.3       3 UNK        -0.1990 
     29 N          23.7097   -0.6777   -4.1532 N.am      3 UNK        -0.4232 
     30 C          24.6656   -1.5406   -3.7793 C.2       2 UNK         0.4993 
     31 O          25.8472   -1.4589   -4.1342 O.2       2 UNK        -0.5286 
     32 CA         24.2180   -2.7402   -2.9317 C.3       2 UNK         0.0209 
     33 CB         23.9938   -3.9692   -3.8279 C.3       2 UNK        -0.1931 
     34 N          25.2454   -3.0520   -1.9420 N.am      2 UNK        -0.4546 
     35 C          25.4270   -2.3588   -0.8109 C.2       1 UNK         0.5154 
     36 O          24.6323   -1.5183   -0.3881 O.2       1 UNK        -0.5181 
     37 C          28.7840   -0.7575   -6.2872 C.2       5 UNK         0.5014 
     38 O          29.7273   -0.2580   -6.9013 O.2       5 UNK        -0.5248 
     39 N          28.1522   -0.1583   -5.2681 N.am      6 UNK        -0.4434 
     40 CA         28.6247    1.0611   -4.6128 C.3       6 UNK         0.0363 
     41 CB         27.8227    1.2879   -3.3221 C.3       6 UNK        -0.1936 
     42 C          28.5813    2.3230   -5.4884 C.2       6 UNK         0.5081 
     43 O          29.4881    3.1486   -5.3775 O.2       6 UNK        -0.5248 
     44 N          27.5311    2.4724   -6.3062 N.am      7 UNK        -0.4718 
     45 CA         27.2598    3.6934   -7.0663 C.3       7 UNK         0.0273 
     46 CB         25.9079    4.2829   -6.6264 C.3       7 UNK        -0.1935 
     47 C          27.2823    3.4558   -8.5793 C.2       7 UNK         0.5018 
     48 O          27.9210    4.2358   -9.2861 O.2       7 UNK        -0.5186 
     49 N          26.5742    2.4213   -9.0598 N.am      8 UNK        -0.4240 
     50 CA         26.3955    2.1723  -10.4954 C.3       8 UNK         0.0235 
     51 CB         25.2127    1.2239  -10.7455 C.3       8 UNK        -0.2000 
     52 C          27.6824    1.6712  -11.1680 C.2       8 UNK         0.4941 
     53 O          28.1602    2.3146  -12.1037 O.2       8 UNK        -0.5273 
     54 N          28.2336    0.5521  -10.6756 N.am      9 UNK        -0.4262 
     55 CA         29.5221    0.0191  -11.1283 C.3       9 UNK         0.0264 
     56 CB         29.6556   -1.4518  -10.7050 C.3       9 UNK        -0.1955 
     57 C          30.7148    0.8345  -10.6010 C.2       9 UNK         0.5031 
     58 O          31.7258    0.9267  -11.2987 O.2       9 UNK        -0.5390 
     59 N          30.5641    1.4031   -9.3933 N.am      10 UNK        -0.4204 
     60 CA         31.5733    2.1240   -8.6097 C.3       10 UNK         0.0237 
     61 CB         32.0014    3.4312   -9.3102 C.3       10 UNK        -0.1985 
     62 C          32.7502    1.1975   -8.2540 C.2       10 UNK         0.4970 
     63 O          33.8820    1.4301   -8.6842 O.2       10 UNK        -0.4914 
     64 N          32.4239    0.1468   -7.4931 N.am      11 UNK        -0.4285 
     65 CA         33.2790   -0.9914   -7.1297 C.3       11 UNK         0.1007 
     66 C          33.5210   -1.9643   -8.3236 C.2       11 UNK         0.5703 
     67 N          34.4471   -2.9070   -8.2005 N.am      11 UNK        -0.7361 
     68 O          32.8488   -1.9125   -9.3513 O.2       11 UNK        -0.4986 
     69 C69        34.5861   -0.5963   -6.3742 C.3       12 UNK        -0.0947 
     70 S70        34.3268    0.5004   -4.9366 S.3       12 UNK        -0.2240 
     71 C71        34.4875   -0.6520   -3.5366 C.3       12 UNK         0.0194 
     72 H72        25.3964   -4.3635    1.7475 H         1 UNK         0.0906 
     73 H73        24.5434   -4.9823    0.3216 H         1 UNK         0.0906 
     74 H74        25.2592   -6.0922    1.4841 H         1 UNK         0.0906 
     75 H75        28.1385   -4.0416   -0.7050 H         1 UNK         0.3140 
     76 H76        26.5234   -2.4857    1.0245 H         1 UNK         0.1085 
     77 H77        27.9278   -1.5969   -1.5408 H         1 UNK         0.0836 
     78 H78        27.3782   -0.5540   -0.2553 H         1 UNK         0.0836 
     79 H79        31.0755   -0.0704    0.0392 H         1 UNK         0.0731 
     80 H80        29.7441    0.2310   -1.0417 H         1 UNK         0.0731 
     81 H81        32.7483    0.2019   -1.6411 H         1 UNK         0.1312 
     82 H82        33.2704   -2.8674   -4.5818 H         1 UNK         0.1406 
     83 H83        29.7200   -2.7900   -2.1989 H         1 UNK         0.1631 
     84 H84        30.1193   -4.6672   -3.6448 H         1 UNK         0.0717 
     85 H85        31.7368   -4.9195   -4.2428 H         1 UNK         0.0717 
     86 H86        28.0263   -4.1028   -5.7331 H         1 UNK         0.0934 
     87 H87        28.5432   -2.8754   -4.6142 H         1 UNK         0.0934 
     88 H88        28.7513   -2.4203   -7.6266 H         1 UNK         0.0739 
     89 H89        26.2443   -2.2784   -6.1022 H         1 UNK         0.3093 
     90 H90        24.4305   -1.0534   -8.9357 H         1 UNK         0.0818 
     91 H91        23.0478   -3.0343   -8.4196 H         1 UNK         0.0819 
     92 H92        24.5302   -3.5382   -9.2117 H         1 UNK         0.0819 
     93 H93        24.3554   -3.7479   -7.4749 H         1 UNK         0.0819 
     94 H94        23.5413   -1.6572   -6.3410 H         1 UNK         0.3041 
     95 H95        24.6648    1.1284   -4.5366 H         1 UNK         0.0784 
     96 H96        22.7559    2.1765   -5.7598 H         1 UNK         0.0793 
     97 H97        21.8181    0.6986   -5.5917 H         1 UNK         0.0793 
     98 H98        22.2678    1.6333   -4.1642 H         1 UNK         0.0793 
     99 H99        22.7655   -0.8247   -3.8248 H         1 UNK         0.3024 
    100 H100       23.2844   -2.4981   -2.4181 H         1 UNK         0.1171 
    101 H101       23.2096   -3.7821   -4.5626 H         1 UNK         0.0786 
    102 H102       24.8965   -4.2432   -4.3759 H         1 UNK         0.0786 
    103 H103       23.6844   -4.8344   -3.2411 H         1 UNK         0.0786 
    104 H104       25.9678   -3.6984   -2.2244 H         1 UNK         0.2977 
    105 H105       27.3552   -0.6256   -4.8397 H         1 UNK         0.3127 
    106 H106       29.6680    0.8937   -4.3341 H         1 UNK         0.0770 
    107 H107       26.7681    1.4697   -3.5275 H         1 UNK         0.0814 
    108 H108       28.2021    2.1506   -2.7729 H         1 UNK         0.0814 
    109 H109       27.8880    0.4278   -2.6597 H         1 UNK         0.0814 
    110 H110       26.8346    1.7359   -6.3730 H         1 UNK         0.2983 
    111 H111       28.0213    4.4488   -6.8591 H         1 UNK         0.0947 
    112 H112       25.6892    5.2034   -7.1693 H         1 UNK         0.0806 
    113 H113       25.9121    4.5276   -5.5642 H         1 UNK         0.0806 
    114 H114       25.0811    3.5956   -6.8062 H         1 UNK         0.0806 
    115 H115       26.0630    1.8292   -8.4090 H         1 UNK         0.3000 
    116 H116       26.1375    3.1283  -10.9574 H         1 UNK         0.0850 
    117 H117       24.9455    1.2173  -11.8029 H         1 UNK         0.0810 
    118 H118       24.3267    1.5283  -10.1880 H         1 UNK         0.0810 
    119 H119       25.4490    0.1980  -10.4751 H         1 UNK         0.0810 
    120 H120       27.7405    0.0161   -9.9633 H         1 UNK         0.3040 
    121 H121       29.5459    0.0579  -12.2197 H         1 UNK         0.0766 
    122 H122       29.6892   -1.5551   -9.6203 H         1 UNK         0.0812 
    123 H123       30.5754   -1.8867  -11.0982 H         1 UNK         0.0812 
    124 H124       28.8253   -2.0526  -11.0762 H         1 UNK         0.0812 
    125 H125       29.7037    1.2032   -8.9019 H         1 UNK         0.3205 
    126 H126       31.0946    2.4002   -7.6685 H         1 UNK         0.0754 
    127 H127       32.6812    4.0034   -8.6781 H         1 UNK         0.0769 
    128 H128       31.1396    4.0653   -9.5199 H         1 UNK         0.0769 
    129 H129       32.5166    3.2430  -10.2525 H         1 UNK         0.0769 
    130 H130       31.4423    0.0309   -7.2427 H         1 UNK         0.2981 
    131 H131       32.6611   -1.5648   -6.4414 H         1 UNK         0.0541 
    132 H132       35.0058   -2.9899   -7.3667 H         1 UNK         0.3459 
    133 H133       34.5911   -3.5475   -8.9652 H         1 UNK         0.3459 
    134 H134       35.2765   -0.0930   -7.0522 H         1 UNK         0.0612 
    135 H135       35.1138   -1.4870   -6.0337 H         1 UNK         0.0612 
    136 H136       34.8947   -0.1024   -2.6866 H         1 UNK         0.0624 
    137 H137       35.2141   -1.4344   -3.7588 H         1 UNK         0.0624 
@<TRIPOS>BOND
     1    1    2 1    
     2    1   72 1    
     3    1   73 1    
     4    1   74 1    
     5    2    3 2    
     6    2    4 am   BACKBONE|DICT|INTERRES
     7    4    5 1    
     8    4   75 1    
     9    5    6 1    
    10    5   35 1    
    11    5   76 1    
    12    6    7 1    
    13    6   77 1    
    14    6   78 1    
    15    7    8 1    
    16    8    9 1    
    17    8   79 1    
    18    8   80 1    
    19    9   10 ar   
    20    9   14 ar   
    21   10   11 ar   
    22   10   81 1    
    23   11   12 ar   
    24   11   71 1    
    25   12   13 ar   
    26   12   82 1    
    27   13   14 ar   
    28   13   15 1    
    29   14   83 1    
    30   15   16 1    
    31   15   84 1    
    32   15   85 1    
    33   16   17 1    
    34   17   18 1    
    35   17   86 1    
    36   17   87 1    
    37   18   19 1    
    38   18   37 1    
    39   18   88 1    
    40   19   20 am   BACKBONE|DICT|INTERRES
    41   19   89 1    
    42   20   21 2    
    43   20   22 1    
    44   22   23 1    
    45   22   24 1    
    46   22   90 1    
    47   23   91 1    
    48   23   92 1    
    49   23   93 1    
    50   24   25 am   BACKBONE|DICT|INTERRES
    51   24   94 1    
    52   25   26 2    
    53   25   27 1    
    54   27   28 1    
    55   27   29 1    
    56   27   95 1    
    57   28   96 1    
    58   28   97 1    
    59   28   98 1    
    60   29   30 am   BACKBONE|DICT|INTERRES
    61   29   99 1    
    62   30   31 2    
    63   30   32 1    
    64   32   33 1    
    65   32   34 1    
    66   32  100 1    
    67   33  101 1    
    68   33  102 1    
    69   33  103 1    
    70   34   35 am   BACKBONE|DICT|INTERRES
    71   34  104 1    
    72   35   36 2    
    73   37   38 2    
    74   37   39 am   BACKBONE|DICT|INTERRES
    75   39   40 1    
    76   39  105 1    
    77   40   41 1    
    78   40   42 1    
    79   40  106 1    
    80   41  107 1    
    81   41  108 1    
    82   41  109 1    
    83   42   43 2    
    84   42   44 am   BACKBONE|DICT|INTERRES
    85   44   45 1    
    86   44  110 1    
    87   45   46 1    
    88   45   47 1    
    89   45  111 1    
    90   46  112 1    
    91   46  113 1    
    92   46  114 1    
    93   47   48 2    
    94   47   49 am   BACKBONE|DICT|INTERRES
    95   49   50 1    
    96   49  115 1    
    97   50   51 1    
    98   50   52 1    
    99   50  116 1    
   100   51  117 1    
   101   51  118 1    
   102   51  119 1    
   103   52   53 2    
   104   52   54 am   BACKBONE|DICT|INTERRES
   105   54   55 1    
   106   54  120 1    
   107   55   56 1    
   108   55   57 1    
   109   55  121 1    
   110   56  122 1    
   111   56  123 1    
   112   56  124 1    
   113   57   58 2    
   114   57   59 am   BACKBONE|DICT|INTERRES
   115   59   60 1    
   116   59  125 1    
   117   60   61 1    
   118   60   62 1    
   119   60  126 1    
   120   61  127 1    
   121   61  128 1    
   122   61  129 1    
   123   62   63 2    
   124   62   64 am   BACKBONE|DICT|INTERRES
   125   64   65 1    
   126   64  130 1    
   127   65   66 1    
   128   65   69 1    
   129   65  131 1    
   130   66   67 am   BACKBONE|DICT|INTERRES
   131   66   68 2    
   132   67  132 1    
   133   67  133 1    
   134   69   70 1    
   135   69  134 1    
   136   69  135 1    
   137   70   71 1    
   138   71  136 1    
   139   71  137 1    
@<TRIPOS>SUBSTRUCTURE
     1 UNK         1 GROUP             0       ****    0 ROOT    
