@<TRIPOS>MOLECULE
3R137
137   139    1
SMALL
USER_CHARGES


@<TRIPOS>ATOM
      1 CA         26.5502   -4.8426    2.2943 C.3       0 UNK        -0.2020 
      2 C          26.7394   -3.9491    1.0781 C.2       0 UNK         0.4855 
      3 O          27.0027   -4.4535   -0.0145 O.2       0 UNK        -0.5197 
      4 N          26.6062   -2.6266    1.2582 N.am      1 UNK        -0.4892 
      5 CA         26.7109   -1.5738    0.2358 C.3       1 UNK         0.0835 
      6 C6         28.0620   -1.6051   -0.5414 C.3       12 UNK        -0.0855 
      7 S7         28.7924    0.0417   -0.8408 S.3       12 UNK        -0.2931 
      8 C8         30.5856   -0.3269   -0.9066 C.3       12 UNK         0.0378 
      9 C9         30.9932   -0.9548   -2.2351 C.ar      12 UNK        -0.0802 
     10 C10        31.6183   -0.1923   -3.2304 C.ar      12 UNK        -0.0944 
     11 C11        31.9127   -0.7582   -4.4778 C.ar      12 UNK        -0.0787 
     12 C12        31.5680   -2.0884   -4.7285 C.ar      12 UNK        -0.0862 
     13 C13        30.9288   -2.8486   -3.7491 C.ar      12 UNK        -0.0733 
     14 C14        30.6973   -2.2961   -2.4878 C.ar      12 UNK        -0.0832 
     15 C15        30.3652   -4.2190   -4.0889 C.3       12 UNK         0.0240 
     16 S16        28.9259   -4.1110   -5.2173 S.3       12 UNK        -0.2522 
     17 C17        28.0363   -2.6016   -4.6809 C.3       12 UNK        -0.0967 
     18 CA         28.1559   -1.4710   -5.7397 C.3       5 UNK         0.0660 
     19 N          27.0618   -1.5465   -6.7012 N.am      5 UNK        -0.4015 
     20 C          26.9284   -0.8456   -7.8300 C.2       4 UNK         0.4946 
     21 O          27.8087   -0.1190   -8.2950 O.2       4 UNK        -0.5353 
     22 CA         25.5613   -0.9334   -8.5368 C.3       4 UNK         0.0277 
     23 CB         25.5111   -2.1367   -9.4981 C.3       4 UNK        -0.1981 
     24 N          24.4126   -0.9030   -7.6077 N.am      4 UNK        -0.4209 
     25 C          24.0414   -1.8308   -6.7110 C.2       3 UNK         0.4942 
     26 O          24.5668   -2.9428   -6.6184 O.2       3 UNK        -0.5208 
     27 CA         22.9343   -1.4268   -5.7180 C.3       3 UNK         0.0250 
     28 CB         21.5490   -1.7570   -6.2964 C.3       3 UNK        -0.1990 
     29 N          23.0810   -2.0879   -4.4135 N.am      3 UNK        -0.4232 
     30 C          24.1497   -1.9843   -3.6085 C.2       2 UNK         0.4993 
     31 O          25.1071   -1.2461   -3.8460 O.2       2 UNK        -0.5286 
     32 CA         24.1589   -2.8917   -2.3628 C.3       2 UNK         0.0209 
     33 CB         24.2058   -4.3749   -2.7735 C.3       2 UNK        -0.1931 
     34 N          25.2898   -2.6406   -1.4633 N.am      2 UNK        -0.4546 
     35 C          25.4624   -1.5690   -0.6786 C.2       1 UNK         0.5154 
     36 O          24.6506   -0.6459   -0.5976 O.2       1 UNK        -0.5181 
     37 C          28.2545   -0.0518   -5.1406 C.2       5 UNK         0.5014 
     38 O          29.2095    0.6634   -5.4437 O.2       5 UNK        -0.5248 
     39 N          27.2356    0.3779   -4.3829 N.am      6 UNK        -0.4434 
     40 CA         27.1595    1.7091   -3.7629 C.3       6 UNK         0.0363 
     41 CB         25.9550    1.7664   -2.8131 C.3       6 UNK        -0.1936 
     42 C          27.1002    2.8789   -4.7608 C.2       6 UNK         0.5081 
     43 O          27.4677    3.9977   -4.4017 O.2       6 UNK        -0.5248 
     44 N          26.6631    2.6038   -5.9969 N.am      7 UNK        -0.4718 
     45 CA         26.6868    3.5489   -7.1165 C.3       7 UNK         0.0273 
     46 CB         25.6970    3.0731   -8.1922 C.3       7 UNK        -0.1935 
     47 C          28.0912    3.7337   -7.7262 C.2       7 UNK         0.5018 
     48 O          28.2577    4.6206   -8.5640 O.2       7 UNK        -0.5186 
     49 N          29.0569    2.8897   -7.3259 N.am      8 UNK        -0.4240 
     50 CA         30.4354    2.8050   -7.8183 C.3       8 UNK         0.0235 
     51 CB         31.2249    4.0961   -7.5150 C.3       8 UNK        -0.2000 
     52 C          30.5325    2.3664   -9.2921 C.2       8 UNK         0.4941 
     53 O          31.5222    2.6794   -9.9542 O.2       8 UNK        -0.5273 
     54 N          29.5227    1.6287   -9.7744 N.am      9 UNK        -0.4262 
     55 CA         29.4907    1.0382  -11.1123 C.3       9 UNK         0.0264 
     56 CB         28.0317    0.8935  -11.5763 C.3       9 UNK        -0.1955 
     57 C          30.2092   -0.3191  -11.1396 C.2       9 UNK         0.5031 
     58 O          30.8091   -0.6603  -12.1595 O.2       9 UNK        -0.5390 
     59 N          30.1439   -1.0653  -10.0256 N.am      10 UNK        -0.4204 
     60 CA         30.8396   -2.3445   -9.8516 C.3       10 UNK         0.0237 
     61 CB         30.2326   -3.1028   -8.6619 C.3       10 UNK        -0.1985 
     62 C          32.3600   -2.1829   -9.6632 C.2       10 UNK         0.4970 
     63 O          33.1117   -3.0662  -10.0774 O.2       10 UNK        -0.4914 
     64 N          32.7815   -1.0743   -9.0405 N.am      11 UNK        -0.4285 
     65 CA         34.1920   -0.6973   -8.8663 C.3       11 UNK         0.1007 
     66 C          34.8176   -0.1544  -10.1806 C.2       11 UNK         0.5703 
     67 N          36.1285   -0.2817  -10.3373 N.am      11 UNK        -0.7361 
     68 O          34.1415    0.4056  -11.0409 O.2       11 UNK        -0.4986 
     69 C69        34.3736    0.3083   -7.6968 C.3       12 UNK        -0.0947 
     70 S70        34.1596   -0.4937   -6.0726 S.3       12 UNK        -0.2240 
     71 C71        32.5019    0.0804   -5.6015 C.3       12 UNK         0.0194 
     72 H72        27.4545   -5.4226    2.4768 H         1 UNK         0.0906 
     73 H73        25.7285   -5.5376    2.1240 H         1 UNK         0.0906 
     74 H74        26.3284   -4.2685    3.1937 H         1 UNK         0.0906 
     75 H75        26.3647   -2.2892    2.1806 H         1 UNK         0.3140 
     76 H76        26.6750   -0.6404    0.8006 H         1 UNK         0.1085 
     77 H77        27.9666   -2.1354   -1.4879 H         1 UNK         0.0836 
     78 H78        28.7950   -2.1706    0.0354 H         1 UNK         0.0836 
     79 H79        31.1343    0.6035   -0.7523 H         1 UNK         0.0731 
     80 H80        30.8652   -0.9811   -0.0795 H         1 UNK         0.0731 
     81 H81        31.8391    0.8505   -3.0493 H         1 UNK         0.1312 
     82 H82        31.7430   -2.5129   -5.7072 H         1 UNK         0.1406 
     83 H83        30.2060   -2.8897   -1.7306 H         1 UNK         0.1631 
     84 H84        30.0601   -4.7454   -3.1832 H         1 UNK         0.0717 
     85 H85        31.1397   -4.8306   -4.5536 H         1 UNK         0.0717 
     86 H86        26.9945   -2.8768   -4.5144 H         1 UNK         0.0934 
     87 H87        28.3868   -2.2778   -3.7053 H         1 UNK         0.0934 
     88 H88        29.0833   -1.6073   -6.2943 H         1 UNK         0.0739 
     89 H89        26.2781   -2.1400   -6.4425 H         1 UNK         0.3093 
     90 H90        25.4684   -0.0370   -9.1501 H         1 UNK         0.0818 
     91 H91        26.2982   -2.0638  -10.2499 H         1 UNK         0.0819 
     92 H92        25.6513   -3.0861   -8.9811 H         1 UNK         0.0819 
     93 H93        24.5598   -2.1807  -10.0282 H         1 UNK         0.0819 
     94 H94        23.9038   -0.0294   -7.6006 H         1 UNK         0.3041 
     95 H95        22.9984   -0.3501   -5.5471 H         1 UNK         0.0784 
     96 H96        21.3925   -1.2560   -7.2527 H         1 UNK         0.0793 
     97 H97        21.4290   -2.8278   -6.4670 H         1 UNK         0.0793 
     98 H98        20.7510   -1.4312   -5.6288 H         1 UNK         0.0793 
     99 H99        22.3528   -2.7404   -4.1634 H         1 UNK         0.3024 
    100 H100       23.2378   -2.7027   -1.8071 H         1 UNK         0.1171 
    101 H101       25.0973   -4.5990   -3.3614 H         1 UNK         0.0786 
    102 H102       24.2092   -5.0283   -1.9006 H         1 UNK         0.0786 
    103 H103       23.3408   -4.6538   -3.3761 H         1 UNK         0.0786 
    104 H104       25.9794   -3.3801   -1.3787 H         1 UNK         0.2977 
    105 H105       26.4559   -0.2566   -4.1905 H         1 UNK         0.3127 
    106 H106       28.0671    1.8460   -3.1717 H         1 UNK         0.0770 
    107 H107       25.8589    2.7512   -2.3542 H         1 UNK         0.0814 
    108 H108       25.0194    1.5498   -3.3300 H         1 UNK         0.0814 
    109 H109       26.0670    1.0476   -2.0041 H         1 UNK         0.0814 
    110 H110       26.3888    1.6545   -6.1997 H         1 UNK         0.2983 
    111 H111       26.3572    4.5254   -6.7544 H         1 UNK         0.0947 
    112 H112       26.0307    2.1487   -8.6615 H         1 UNK         0.0806 
    113 H113       25.5992    3.8169   -8.9843 H         1 UNK         0.0806 
    114 H114       24.7015    2.9095   -7.7796 H         1 UNK         0.0806 
    115 H115       28.8203    2.1846   -6.6324 H         1 UNK         0.3000 
    116 H116       30.8982    2.0046   -7.2429 H         1 UNK         0.0850 
    117 H117       32.2860    3.9646   -7.7302 H         1 UNK         0.0810 
    118 H118       31.1411    4.3740   -6.4644 H         1 UNK         0.0810 
    119 H119       30.8750    4.9365   -8.1149 H         1 UNK         0.0810 
    120 H120       28.7757    1.3518   -9.1432 H         1 UNK         0.3040 
    121 H121       30.0025    1.7041  -11.8106 H         1 UNK         0.0766 
    122 H122       27.4670    0.2099  -10.9426 H         1 UNK         0.0812 
    123 H123       27.9857    0.5046  -12.5944 H         1 UNK         0.0812 
    124 H124       27.5181    1.8550  -11.5728 H         1 UNK         0.0812 
    125 H125       29.5586   -0.7396   -9.2636 H         1 UNK         0.3205 
    126 H126       30.6770   -2.9421  -10.7513 H         1 UNK         0.0754 
    127 H127       29.1491   -3.1909   -8.7469 H         1 UNK         0.0769 
    128 H128       30.4605   -2.6099   -7.7188 H         1 UNK         0.0769 
    129 H129       30.6363   -4.1142   -8.5996 H         1 UNK         0.0769 
    130 H130       32.1005   -0.3774   -8.7876 H         1 UNK         0.2981 
    131 H131       34.7440   -1.6053   -8.6135 H         1 UNK         0.0541 
    132 H132       36.5575    0.0744  -11.1772 H         1 UNK         0.3459 
    133 H133       36.6976   -0.7291   -9.6354 H         1 UNK         0.3459 
    134 H134       33.6943    1.1571   -7.7973 H         1 UNK         0.0612 
    135 H135       35.3812    0.7284   -7.7017 H         1 UNK         0.0612 
    136 H136       32.5472    1.1349   -5.3254 H         1 UNK         0.0624 
    137 H137       31.8379    0.0083   -6.4630 H         1 UNK         0.0624 
@<TRIPOS>BOND
     1    1    2 1    
     2    1   72 1    
     3    1   73 1    
     4    1   74 1    
     5    2    3 2    
     6    2    4 am   BACKBONE|DICT|INTERRES
     7    4    5 1    
     8    4   75 1    
     9    5    6 1    
    10    5   35 1    
    11    5   76 1    
    12    6    7 1    
    13    6   77 1    
    14    6   78 1    
    15    7    8 1    
    16    8    9 1    
    17    8   79 1    
    18    8   80 1    
    19    9   10 ar   
    20    9   14 ar   
    21   10   11 ar   
    22   10   81 1    
    23   11   12 ar   
    24   11   71 1    
    25   12   13 ar   
    26   12   82 1    
    27   13   14 ar   
    28   13   15 1    
    29   14   83 1    
    30   15   16 1    
    31   15   84 1    
    32   15   85 1    
    33   16   17 1    
    34   17   18 1    
    35   17   86 1    
    36   17   87 1    
    37   18   19 1    
    38   18   37 1    
    39   18   88 1    
    40   19   20 am   BACKBONE|DICT|INTERRES
    41   19   89 1    
    42   20   21 2    
    43   20   22 1    
    44   22   23 1    
    45   22   24 1    
    46   22   90 1    
    47   23   91 1    
    48   23   92 1    
    49   23   93 1    
    50   24   25 am   BACKBONE|DICT|INTERRES
    51   24   94 1    
    52   25   26 2    
    53   25   27 1    
    54   27   28 1    
    55   27   29 1    
    56   27   95 1    
    57   28   96 1    
    58   28   97 1    
    59   28   98 1    
    60   29   30 am   BACKBONE|DICT|INTERRES
    61   29   99 1    
    62   30   31 2    
    63   30   32 1    
    64   32   33 1    
    65   32   34 1    
    66   32  100 1    
    67   33  101 1    
    68   33  102 1    
    69   33  103 1    
    70   34   35 am   BACKBONE|DICT|INTERRES
    71   34  104 1    
    72   35   36 2    
    73   37   38 2    
    74   37   39 am   BACKBONE|DICT|INTERRES
    75   39   40 1    
    76   39  105 1    
    77   40   41 1    
    78   40   42 1    
    79   40  106 1    
    80   41  107 1    
    81   41  108 1    
    82   41  109 1    
    83   42   43 2    
    84   42   44 am   BACKBONE|DICT|INTERRES
    85   44   45 1    
    86   44  110 1    
    87   45   46 1    
    88   45   47 1    
    89   45  111 1    
    90   46  112 1    
    91   46  113 1    
    92   46  114 1    
    93   47   48 2    
    94   47   49 am   BACKBONE|DICT|INTERRES
    95   49   50 1    
    96   49  115 1    
    97   50   51 1    
    98   50   52 1    
    99   50  116 1    
   100   51  117 1    
   101   51  118 1    
   102   51  119 1    
   103   52   53 2    
   104   52   54 am   BACKBONE|DICT|INTERRES
   105   54   55 1    
   106   54  120 1    
   107   55   56 1    
   108   55   57 1    
   109   55  121 1    
   110   56  122 1    
   111   56  123 1    
   112   56  124 1    
   113   57   58 2    
   114   57   59 am   BACKBONE|DICT|INTERRES
   115   59   60 1    
   116   59  125 1    
   117   60   61 1    
   118   60   62 1    
   119   60  126 1    
   120   61  127 1    
   121   61  128 1    
   122   61  129 1    
   123   62   63 2    
   124   62   64 am   BACKBONE|DICT|INTERRES
   125   64   65 1    
   126   64  130 1    
   127   65   66 1    
   128   65   69 1    
   129   65  131 1    
   130   66   67 am   BACKBONE|DICT|INTERRES
   131   66   68 2    
   132   67  132 1    
   133   67  133 1    
   134   69   70 1    
   135   69  134 1    
   136   69  135 1    
   137   70   71 1    
   138   71  136 1    
   139   71  137 1    
@<TRIPOS>SUBSTRUCTURE
     1 UNK         1 GROUP             0       ****    0 ROOT    
