@<TRIPOS>MOLECULE
3R137
137   139    1
SMALL
USER_CHARGES


@<TRIPOS>ATOM
      1 CA         26.9215    0.5143    2.3488 C.3       0 UNK        -0.2020 
      2 C          27.2562    0.5474    0.8652 C.2       0 UNK         0.4855 
      3 O          27.8518    1.5159    0.3938 O.2       0 UNK        -0.5197 
      4 N          26.8713   -0.5001    0.1227 N.am      1 UNK        -0.4892 
      5 CA         27.1138   -0.6376   -1.3221 C.3       1 UNK         0.0835 
      6 C6         27.1480   -2.1287   -1.7422 C.3       12 UNK        -0.0855 
      7 S7         28.3144   -2.4211   -3.1120 S.3       12 UNK        -0.2931 
      8 C8         29.2990   -3.8016   -2.4609 C.3       12 UNK         0.0378 
      9 C9         30.2299   -4.3274   -3.5380 C.ar      12 UNK        -0.0802 
     10 C10        31.5730   -3.9380   -3.5685 C.ar      12 UNK        -0.0944 
     11 C11        32.4154   -4.3931   -4.5873 C.ar      12 UNK        -0.0787 
     12 C12        31.9063   -5.2388   -5.5755 C.ar      12 UNK        -0.0862 
     13 C13        30.5575   -5.6028   -5.5731 C.ar      12 UNK        -0.0733 
     14 C14        29.7295   -5.1705   -4.5347 C.ar      12 UNK        -0.0832 
     15 C15        29.9840   -6.3781   -6.7495 C.3       12 UNK         0.0240 
     16 S16        28.8523   -5.3742   -7.7817 S.3       12 UNK        -0.2522 
     17 C17        29.6038   -3.6963   -7.8214 C.3       12 UNK        -0.0967 
     18 CA         28.5941   -2.5410   -7.5736 C.3       5 UNK         0.0660 
     19 N          27.5071   -2.8972   -6.6537 N.am      5 UNK        -0.4015 
     20 C          26.3752   -2.2009   -6.4893 C.2       4 UNK         0.4946 
     21 O          26.2211   -1.0494   -6.9010 O.2       4 UNK        -0.5353 
     22 CA         25.1925   -2.9288   -5.8305 C.3       4 UNK         0.0277 
     23 CB         25.5632   -4.1436   -4.9502 C.3       4 UNK        -0.1981 
     24 N          24.3502   -1.9811   -5.0995 N.am      4 UNK        -0.4209 
     25 C          23.0291   -2.1309   -4.9276 C.2       3 UNK         0.4942 
     26 O          22.4055   -3.1179   -5.3233 O.2       3 UNK        -0.5208 
     27 CA         22.2652   -1.0072   -4.2054 C.3       3 UNK         0.0250 
     28 CB         21.0325   -1.5258   -3.4384 C.3       3 UNK        -0.1990 
     29 N          23.1251   -0.2634   -3.2842 N.am      3 UNK        -0.4232 
     30 C          23.1694    1.0705   -3.1857 C.2       2 UNK         0.4993 
     31 O          22.4879    1.8287   -3.8769 O.2       2 UNK        -0.5286 
     32 CA         24.1155    1.6808   -2.1341 C.3       2 UNK         0.0209 
     33 CB         23.3059    2.3221   -0.9938 C.3       2 UNK        -0.1931 
     34 N          25.0894    0.7533   -1.5487 N.am      2 UNK        -0.4546 
     35 C          26.1219    0.1814   -2.1858 C.2       1 UNK         0.5154 
     36 O          26.2940    0.2689   -3.4028 O.2       1 UNK        -0.5181 
     37 C          29.3227   -1.2209   -7.2332 C.2       5 UNK         0.5014 
     38 O          29.9152   -0.6168   -8.1308 O.2       5 UNK        -0.5248 
     39 N          29.2709   -0.7744   -5.9692 N.am      6 UNK        -0.4434 
     40 CA         29.7884    0.5331   -5.5582 C.3       6 UNK         0.0363 
     41 CB         29.9421    0.6049   -4.0339 C.3       6 UNK        -0.1936 
     42 C          28.9215    1.6846   -6.0900 C.2       6 UNK         0.5081 
     43 O          29.4656    2.6374   -6.6459 O.2       6 UNK        -0.5248 
     44 N          27.5912    1.5532   -5.9826 N.am      7 UNK        -0.4718 
     45 CA         26.6198    2.4821   -6.5734 C.3       7 UNK         0.0273 
     46 CB         25.2169    2.1856   -6.0280 C.3       7 UNK        -0.1935 
     47 C          26.6226    2.4569   -8.1114 C.2       7 UNK         0.5018 
     48 O          26.3695    3.4898   -8.7319 O.2       7 UNK        -0.5186 
     49 N          26.9629    1.2995   -8.6972 N.am      8 UNK        -0.4240 
     50 CA         27.2241    1.1316  -10.1319 C.3       8 UNK         0.0235 
     51 CB         27.1457   -0.3602  -10.4948 C.3       8 UNK        -0.2000 
     52 C          28.5728    1.7279  -10.5929 C.2       8 UNK         0.4941 
     53 O          28.8516    1.6961  -11.7920 O.2       8 UNK        -0.5273 
     54 N          29.3807    2.2473   -9.6545 N.am      9 UNK        -0.4262 
     55 CA         30.6782    2.9040   -9.8411 C.3       9 UNK         0.0264 
     56 CB         30.5574    4.1488  -10.7473 C.3       9 UNK        -0.1955 
     57 C          31.8174    1.9587  -10.2672 C.2       9 UNK         0.5031 
     58 O          32.8276    2.4377  -10.7858 O.2       9 UNK        -0.5390 
     59 N          31.6792    0.6509  -10.0038 N.am      10 UNK        -0.4204 
     60 CA         32.7597   -0.3264  -10.1691 C.3       10 UNK         0.0237 
     61 CB         32.1736   -1.7286  -10.3957 C.3       10 UNK        -0.1985 
     62 C          33.6966   -0.3142   -8.9506 C.2       10 UNK         0.4970 
     63 O          34.9151   -0.3403   -9.1255 O.2       10 UNK        -0.4914 
     64 N          33.1039   -0.2444   -7.7515 N.am      11 UNK        -0.4285 
     65 CA         33.7970   -0.1273   -6.4557 C.3       11 UNK         0.1007 
     66 C          33.5955    1.2626   -5.7834 C.2       11 UNK         0.5703 
     67 N          33.0442    2.2573   -6.4688 N.am      11 UNK        -0.7361 
     68 O          33.9606    1.4537   -4.6262 O.2       11 UNK        -0.4986 
     69 C69        33.4280   -1.3052   -5.5119 C.3       12 UNK        -0.0947 
     70 S70        34.1691   -2.8679   -6.0843 S.3       12 UNK        -0.2240 
     71 C71        33.8691   -3.9530   -4.6532 C.3       12 UNK         0.0194 
     72 H72        26.3944   -0.3974    2.6293 H         1 UNK         0.0906 
     73 H73        26.2919    1.3643    2.6106 H         1 UNK         0.0906 
     74 H74        27.8349    0.5725    2.9401 H         1 UNK         0.0906 
     75 H75        26.3853   -1.2687    0.5647 H         1 UNK         0.3140 
     76 H76        28.1011   -0.2110   -1.5109 H         1 UNK         0.1085 
     77 H77        26.1584   -2.4963   -2.0204 H         1 UNK         0.0836 
     78 H78        27.4609   -2.7473   -0.8994 H         1 UNK         0.0836 
     79 H79        29.8628   -3.4698   -1.5875 H         1 UNK         0.0731 
     80 H80        28.6367   -4.6009   -2.1244 H         1 UNK         0.0731 
     81 H81        31.9567   -3.2686   -2.8107 H         1 UNK         0.1312 
     82 H82        32.5519   -5.5625   -6.3808 H         1 UNK         0.1406 
     83 H83        28.6836   -5.4453   -4.5313 H         1 UNK         0.1631 
     84 H84        29.4476   -7.2537   -6.3815 H         1 UNK         0.0717 
     85 H85        30.7854   -6.7576   -7.3853 H         1 UNK         0.0717 
     86 H86        30.4356   -3.6214   -7.1242 H         1 UNK         0.0934 
     87 H87        30.0556   -3.5750   -8.8063 H         1 UNK         0.0934 
     88 H88        28.0963   -2.3696   -8.5275 H         1 UNK         0.0739 
     89 H89        27.5553   -3.8347   -6.2834 H         1 UNK         0.3093 
     90 H90        24.6131   -3.3094   -6.6745 H         1 UNK         0.0818 
     91 H91        26.1427   -4.8859   -5.4995 H         1 UNK         0.0819 
     92 H92        26.1322   -3.8541   -4.0710 H         1 UNK         0.0819 
     93 H93        24.6678   -4.6557   -4.5978 H         1 UNK         0.0819 
     94 H94        24.8029   -1.1191   -4.8183 H         1 UNK         0.3041 
     95 H95        21.9126   -0.3449   -4.9989 H         1 UNK         0.0784 
     96 H96        20.3320   -2.0278   -4.1071 H         1 UNK         0.0793 
     97 H97        21.3137   -2.2383   -2.6621 H         1 UNK         0.0793 
     98 H98        20.4899   -0.7085   -2.9629 H         1 UNK         0.0793 
     99 H99        23.7221   -0.8098   -2.6800 H         1 UNK         0.3024 
    100 H100       24.6769    2.4711   -2.6364 H         1 UNK         0.1171 
    101 H101       22.5973    3.0564   -1.3800 H         1 UNK         0.0786 
    102 H102       22.7333    1.5784   -0.4381 H         1 UNK         0.0786 
    103 H103       23.9547    2.8437   -0.2897 H         1 UNK         0.0786 
    104 H104       25.0285    0.6091   -0.5513 H         1 UNK         0.2977 
    105 H105       28.7788   -1.3201   -5.2725 H         1 UNK         0.3127 
    106 H106       30.7807    0.6469   -5.9924 H         1 UNK         0.0770 
    107 H107       28.9767    0.5629   -3.5333 H         1 UNK         0.0814 
    108 H108       30.4217    1.5385   -3.7373 H         1 UNK         0.0814 
    109 H109       30.5578   -0.2114   -3.6555 H         1 UNK         0.0814 
    110 H110       27.2117    0.7392   -5.5129 H         1 UNK         0.2983 
    111 H111       26.8957    3.4934   -6.2664 H         1 UNK         0.0947 
    112 H112       24.8973    1.1671   -6.2492 H         1 UNK         0.0806 
    113 H113       24.4758    2.8619   -6.4561 H         1 UNK         0.0806 
    114 H114       25.1894    2.3205   -4.9490 H         1 UNK         0.0806 
    115 H115       27.0707    0.4847   -8.1024 H         1 UNK         0.3000 
    116 H116       26.4350    1.6537  -10.6773 H         1 UNK         0.0850 
    117 H117       26.2823   -0.8465  -10.0399 H         1 UNK         0.0810 
    118 H118       28.0443   -0.8923  -10.1864 H         1 UNK         0.0810 
    119 H119       27.0596   -0.4878  -11.5745 H         1 UNK         0.0810 
    120 H120       29.0725    2.2046   -8.6895 H         1 UNK         0.3040 
    121 H121       30.9604    3.2630   -8.8507 H         1 UNK         0.0766 
    122 H122       30.3661    3.8786  -11.7861 H         1 UNK         0.0812 
    123 H123       31.4766    4.7356  -10.7313 H         1 UNK         0.0812 
    124 H124       29.7520    4.8043  -10.4159 H         1 UNK         0.0812 
    125 H125       30.8377    0.3257   -9.5329 H         1 UNK         0.3205 
    126 H126       33.3464   -0.0653  -11.0528 H         1 UNK         0.0754 
    127 H127       32.9638   -2.4473  -10.6166 H         1 UNK         0.0769 
    128 H128       31.4782   -1.7395  -11.2351 H         1 UNK         0.0769 
    129 H129       31.6458   -2.0910   -9.5155 H         1 UNK         0.0769 
    130 H130       32.0931   -0.2470   -7.7156 H         1 UNK         0.2981 
    131 H131       34.8747   -0.1740   -6.6208 H         1 UNK         0.0541 
    132 H132       32.9230    3.1524   -6.0223 H         1 UNK         0.3459 
    133 H133       32.7865    2.1343   -7.4324 H         1 UNK         0.3459 
    134 H134       32.3457   -1.4242   -5.4371 H         1 UNK         0.0612 
    135 H135       33.7913   -1.1278   -4.4983 H         1 UNK         0.0612 
    136 H136       34.1721   -3.4464   -3.7356 H         1 UNK         0.0624 
    137 H137       34.5044   -4.8352   -4.7421 H         1 UNK         0.0624 
@<TRIPOS>BOND
     1    1    2 1    
     2    1   72 1    
     3    1   73 1    
     4    1   74 1    
     5    2    3 2    
     6    2    4 am   BACKBONE|DICT|INTERRES
     7    4    5 1    
     8    4   75 1    
     9    5    6 1    
    10    5   35 1    
    11    5   76 1    
    12    6    7 1    
    13    6   77 1    
    14    6   78 1    
    15    7    8 1    
    16    8    9 1    
    17    8   79 1    
    18    8   80 1    
    19    9   10 ar   
    20    9   14 ar   
    21   10   11 ar   
    22   10   81 1    
    23   11   12 ar   
    24   11   71 1    
    25   12   13 ar   
    26   12   82 1    
    27   13   14 ar   
    28   13   15 1    
    29   14   83 1    
    30   15   16 1    
    31   15   84 1    
    32   15   85 1    
    33   16   17 1    
    34   17   18 1    
    35   17   86 1    
    36   17   87 1    
    37   18   19 1    
    38   18   37 1    
    39   18   88 1    
    40   19   20 am   BACKBONE|DICT|INTERRES
    41   19   89 1    
    42   20   21 2    
    43   20   22 1    
    44   22   23 1    
    45   22   24 1    
    46   22   90 1    
    47   23   91 1    
    48   23   92 1    
    49   23   93 1    
    50   24   25 am   BACKBONE|DICT|INTERRES
    51   24   94 1    
    52   25   26 2    
    53   25   27 1    
    54   27   28 1    
    55   27   29 1    
    56   27   95 1    
    57   28   96 1    
    58   28   97 1    
    59   28   98 1    
    60   29   30 am   BACKBONE|DICT|INTERRES
    61   29   99 1    
    62   30   31 2    
    63   30   32 1    
    64   32   33 1    
    65   32   34 1    
    66   32  100 1    
    67   33  101 1    
    68   33  102 1    
    69   33  103 1    
    70   34   35 am   BACKBONE|DICT|INTERRES
    71   34  104 1    
    72   35   36 2    
    73   37   38 2    
    74   37   39 am   BACKBONE|DICT|INTERRES
    75   39   40 1    
    76   39  105 1    
    77   40   41 1    
    78   40   42 1    
    79   40  106 1    
    80   41  107 1    
    81   41  108 1    
    82   41  109 1    
    83   42   43 2    
    84   42   44 am   BACKBONE|DICT|INTERRES
    85   44   45 1    
    86   44  110 1    
    87   45   46 1    
    88   45   47 1    
    89   45  111 1    
    90   46  112 1    
    91   46  113 1    
    92   46  114 1    
    93   47   48 2    
    94   47   49 am   BACKBONE|DICT|INTERRES
    95   49   50 1    
    96   49  115 1    
    97   50   51 1    
    98   50   52 1    
    99   50  116 1    
   100   51  117 1    
   101   51  118 1    
   102   51  119 1    
   103   52   53 2    
   104   52   54 am   BACKBONE|DICT|INTERRES
   105   54   55 1    
   106   54  120 1    
   107   55   56 1    
   108   55   57 1    
   109   55  121 1    
   110   56  122 1    
   111   56  123 1    
   112   56  124 1    
   113   57   58 2    
   114   57   59 am   BACKBONE|DICT|INTERRES
   115   59   60 1    
   116   59  125 1    
   117   60   61 1    
   118   60   62 1    
   119   60  126 1    
   120   61  127 1    
   121   61  128 1    
   122   61  129 1    
   123   62   63 2    
   124   62   64 am   BACKBONE|DICT|INTERRES
   125   64   65 1    
   126   64  130 1    
   127   65   66 1    
   128   65   69 1    
   129   65  131 1    
   130   66   67 am   BACKBONE|DICT|INTERRES
   131   66   68 2    
   132   67  132 1    
   133   67  133 1    
   134   69   70 1    
   135   69  134 1    
   136   69  135 1    
   137   70   71 1    
   138   71  136 1    
   139   71  137 1    
@<TRIPOS>SUBSTRUCTURE
     1 UNK         1 GROUP             0       ****    0 ROOT    
