@<TRIPOS>MOLECULE
3R137
137   139    1
SMALL
USER_CHARGES


@<TRIPOS>ATOM
      1 CA         29.5319   -0.0947    1.1366 C.3       0 UNK        -0.2020 
      2 C          29.5562   -0.6239   -0.2889 C.2       0 UNK         0.4855 
      3 O          30.2759   -0.0860   -1.1294 O.2       0 UNK        -0.5197 
      4 N          28.7599   -1.6620   -0.5744 N.am      1 UNK        -0.4892 
      5 CA         28.6578   -2.3674   -1.8618 C.3       1 UNK         0.0835 
      6 C6         28.0395   -3.7789   -1.6632 C.3       12 UNK        -0.0855 
      7 S7         29.1443   -4.8681   -0.7009 S.3       12 UNK        -0.2931 
      8 C8         29.7610   -6.0094   -1.9848 C.3       12 UNK         0.0378 
      9 C9         30.3276   -5.2733   -3.1923 C.ar      12 UNK        -0.0802 
     10 C10        31.4940   -4.5145   -3.0719 C.ar      12 UNK        -0.0944 
     11 C11        31.9976   -3.8111   -4.1688 C.ar      12 UNK        -0.0787 
     12 C12        31.3321   -3.8779   -5.3976 C.ar      12 UNK        -0.0862 
     13 C13        30.1694   -4.6423   -5.5359 C.ar      12 UNK        -0.0733 
     14 C14        29.6781   -5.3432   -4.4289 C.ar      12 UNK        -0.0832 
     15 C15        29.4866   -4.7611   -6.8949 C.3       12 UNK         0.0240 
     16 S16        27.6812   -4.5167   -6.8217 S.3       12 UNK        -0.2522 
     17 C17        27.5266   -2.7109   -7.0127 C.3       12 UNK        -0.0967 
     18 CA         26.0332   -2.2945   -7.0600 C.3       5 UNK         0.0660 
     19 N          25.3753   -2.5061   -5.7705 N.am      5 UNK        -0.4015 
     20 C          24.0657   -2.7103   -5.5801 C.2       4 UNK         0.4946 
     21 O          23.2473   -2.7987   -6.4973 O.2       4 UNK        -0.5353 
     22 CA         23.5884   -2.7796   -4.1237 C.3       4 UNK         0.0277 
     23 CB         24.0448   -4.0898   -3.4586 C.3       4 UNK        -0.1981 
     24 N          24.1080   -1.6384   -3.3688 N.am      4 UNK        -0.4209 
     25 C          23.4341   -0.5052   -3.1248 C.2       3 UNK         0.4942 
     26 O          22.2591   -0.3229   -3.4452 O.2       3 UNK        -0.5208 
     27 CA         24.1929    0.6215   -2.3951 C.3       3 UNK         0.0250 
     28 CB         23.9801    0.5158   -0.8762 C.3       3 UNK        -0.1990 
     29 N          25.6296    0.6238   -2.6802 N.am      3 UNK        -0.4232 
     30 C          26.1707    0.9504   -3.8626 C.2       2 UNK         0.4993 
     31 O          25.5221    1.4248   -4.7938 O.2       2 UNK        -0.5286 
     32 CA         27.6796    0.6893   -4.0507 C.3       2 UNK         0.0209 
     33 CB         28.4685    2.0069   -3.9722 C.3       2 UNK        -0.1931 
     34 N          28.2697   -0.2736   -3.1098 N.am      2 UNK        -0.4546 
     35 C          27.8966   -1.5475   -2.9292 C.2       1 UNK         0.5154 
     36 O          26.9551   -2.0558   -3.5396 O.2       1 UNK        -0.5181 
     37 C          25.8275   -0.8285   -7.4842 C.2       5 UNK         0.5014 
     38 O          26.7734   -0.0395   -7.4592 O.2       5 UNK        -0.5248 
     39 N          24.5766   -0.5007   -7.8420 N.am      6 UNK        -0.4434 
     40 CA         24.0301    0.8408   -8.0898 C.3       6 UNK         0.0363 
     41 CB         22.5393    0.7059   -8.4416 C.3       6 UNK        -0.1936 
     42 C          24.7543    1.7018   -9.1426 C.2       6 UNK         0.5081 
     43 O          24.5381    2.9138   -9.1716 O.2       6 UNK        -0.5248 
     44 N          25.6122    1.0880   -9.9692 N.am      7 UNK        -0.4718 
     45 CA         26.5576    1.7777  -10.8525 C.3       7 UNK         0.0273 
     46 CB         27.2200    0.7477  -11.7819 C.3       7 UNK        -0.1935 
     47 C          27.6340    2.5754  -10.0883 C.2       7 UNK         0.5018 
     48 O          28.2125    3.4977  -10.6642 O.2       7 UNK        -0.5186 
     49 N          27.8933    2.2012   -8.8243 N.am      8 UNK        -0.4240 
     50 CA         28.8008    2.7970   -7.8345 C.3       8 UNK         0.0235 
     51 CB         28.4076    4.2489   -7.5056 C.3       8 UNK        -0.2000 
     52 C          30.2950    2.6857   -8.1735 C.2       8 UNK         0.4941 
     53 O          31.0790    2.3290   -7.2946 O.2       8 UNK        -0.5273 
     54 N          30.6633    2.9412   -9.4364 N.am      9 UNK        -0.4262 
     55 CA         32.0252    2.8741   -9.9812 C.3       9 UNK         0.0264 
     56 CB         31.9953    3.2731  -11.4649 C.3       9 UNK        -0.1955 
     57 C          32.7081    1.5057   -9.8055 C.2       9 UNK         0.5031 
     58 O          33.9325    1.4544   -9.6843 O.2       9 UNK        -0.5390 
     59 N          31.9031    0.4358   -9.7280 N.am      10 UNK        -0.4204 
     60 CA         32.3151   -0.9292   -9.3889 C.3       10 UNK         0.0237 
     61 CB         31.1001   -1.8623   -9.5279 C.3       10 UNK        -0.1985 
     62 C          32.9390   -1.0755   -7.9855 C.2       10 UNK         0.4970 
     63 O          33.6344   -2.0640   -7.7510 O.2       10 UNK        -0.4914 
     64 N          32.6887   -0.1107   -7.0910 N.am      11 UNK        -0.4285 
     65 CA         33.2610   -0.0227   -5.7431 C.3       11 UNK         0.1007 
     66 C          33.9319    1.3564   -5.4732 C.2       11 UNK         0.5703 
     67 N          34.3206    2.1085   -6.4982 N.am      11 UNK        -0.7361 
     68 O          34.1321    1.7474   -4.3259 O.2       11 UNK        -0.4986 
     69 C69        32.2223   -0.4592   -4.6690 C.3       12 UNK        -0.0947 
     70 S70        32.9858   -1.3669   -3.2842 S.3       12 UNK        -0.2240 
     71 C71        33.2785   -3.0048   -4.0258 C.3       12 UNK         0.0194 
     72 H72        29.2188    0.9490    1.1440 H         1 UNK         0.0906 
     73 H73        28.8486   -0.6589    1.7710 H         1 UNK         0.0906 
     74 H74        30.5281   -0.1544    1.5743 H         1 UNK         0.0906 
     75 H75        28.1937   -2.0534    0.1652 H         1 UNK         0.3140 
     76 H76        29.6677   -2.4922   -2.2588 H         1 UNK         0.1085 
     77 H77        27.0804   -3.7081   -1.1468 H         1 UNK         0.0836 
     78 H78        27.8192   -4.2588   -2.6180 H         1 UNK         0.0836 
     79 H79        28.9498   -6.6757   -2.2827 H         1 UNK         0.0731 
     80 H80        30.5357   -6.6448   -1.5534 H         1 UNK         0.0731 
     81 H81        32.0016   -4.4597   -2.1183 H         1 UNK         0.1312 
     82 H82        31.7319   -3.3462   -6.2501 H         1 UNK         0.1406 
     83 H83        28.7831   -5.9418   -4.5321 H         1 UNK         0.1631 
     84 H84        29.6816   -5.7605   -7.2858 H         1 UNK         0.0717 
     85 H85        29.9168   -4.0634   -7.6144 H         1 UNK         0.0717 
     86 H86        28.0536   -2.2110   -6.1974 H         1 UNK         0.0934 
     87 H87        28.0341   -2.4239   -7.9356 H         1 UNK         0.0934 
     88 H88        25.5406   -2.9136   -7.8135 H         1 UNK         0.0739 
     89 H89        25.9784   -2.4190   -4.9538 H         1 UNK         0.3093 
     90 H90        22.4963   -2.7639   -4.1244 H         1 UNK         0.0818 
     91 H91        25.1316   -4.1743   -3.4185 H         1 UNK         0.0819 
     92 H92        23.6677   -4.1656   -2.4387 H         1 UNK         0.0819 
     93 H93        23.6709   -4.9553   -4.0071 H         1 UNK         0.0819 
     94 H94        25.0923   -1.6789   -3.1258 H         1 UNK         0.3041 
     95 H95        23.7771    1.5729   -2.7343 H         1 UNK         0.0784 
     96 H96        22.9175    0.5380   -0.6296 H         1 UNK         0.0793 
     97 H97        24.3885   -0.4119   -0.4730 H         1 UNK         0.0793 
     98 H98        24.4499    1.3473   -0.3505 H         1 UNK         0.0793 
     99 H99        26.2420    0.2707   -1.9600 H         1 UNK         0.3024 
    100 H100       27.8008    0.2771   -5.0540 H         1 UNK         0.1171 
    101 H101       29.5064    1.8658   -4.2749 H         1 UNK         0.0786 
    102 H102       28.0404    2.7631   -4.6317 H         1 UNK         0.0786 
    103 H103       28.4650    2.4179   -2.9620 H         1 UNK         0.0786 
    104 H104       29.0490    0.0524   -2.5413 H         1 UNK         0.2977 
    105 H105       23.8888   -1.2436   -7.7725 H         1 UNK         0.3127 
    106 H106       24.1059    1.3850   -7.1465 H         1 UNK         0.0770 
    107 H107       22.3930    0.1327   -9.3578 H         1 UNK         0.0814 
    108 H108       22.0803    1.6842   -8.5919 H         1 UNK         0.0814 
    109 H109       21.9856    0.2120   -7.6425 H         1 UNK         0.0814 
    110 H110       25.7195    0.0886   -9.8760 H         1 UNK         0.2983 
    111 H111       25.9966    2.4886  -11.4631 H         1 UNK         0.0947 
    112 H112       27.9129    1.2327  -12.4713 H         1 UNK         0.0806 
    113 H113       26.4792    0.2243  -12.3866 H         1 UNK         0.0806 
    114 H114       27.7859    0.0018  -11.2222 H         1 UNK         0.0806 
    115 H115       27.3809    1.3951   -8.4682 H         1 UNK         0.3000 
    116 H116       28.6508    2.2062   -6.9301 H         1 UNK         0.0850 
    117 H117       29.0273    4.6463   -6.7006 H         1 UNK         0.0810 
    118 H118       27.3700    4.3106   -7.1769 H         1 UNK         0.0810 
    119 H119       28.5274    4.9101   -8.3643 H         1 UNK         0.0810 
    120 H120       29.9233    3.2327  -10.0730 H         1 UNK         0.3040 
    121 H121       32.6262    3.6067   -9.4388 H         1 UNK         0.0766 
    122 H122       31.6056    4.2827  -11.5964 H         1 UNK         0.0812 
    123 H123       31.3748    2.5953  -12.0528 H         1 UNK         0.0812 
    124 H124       32.9977    3.2556  -11.8953 H         1 UNK         0.0812 
    125 H125       30.9125    0.5924   -9.8402 H         1 UNK         0.3205 
    126 H126       33.0726   -1.2347  -10.1136 H         1 UNK         0.0754 
    127 H127       31.3798   -2.8981   -9.3305 H         1 UNK         0.0769 
    128 H128       30.6850   -1.8294  -10.5355 H         1 UNK         0.0769 
    129 H129       30.3068   -1.5984   -8.8271 H         1 UNK         0.0769 
    130 H130       32.1130    0.6856   -7.3522 H         1 UNK         0.2981 
    131 H131       34.1057   -0.7106   -5.7003 H         1 UNK         0.0541 
    132 H132       34.7585    2.9970   -6.3145 H         1 UNK         0.3459 
    133 H133       34.1968    1.7937   -7.4503 H         1 UNK         0.3459 
    134 H134       31.4550   -1.1007   -5.1028 H         1 UNK         0.0612 
    135 H135       31.6807    0.4009   -4.2714 H         1 UNK         0.0612 
    136 H136       33.7726   -2.8968   -4.9919 H         1 UNK         0.0624 
    137 H137       33.9786   -3.5504   -3.3914 H         1 UNK         0.0624 
@<TRIPOS>BOND
     1    1    2 1    
     2    1   72 1    
     3    1   73 1    
     4    1   74 1    
     5    2    3 2    
     6    2    4 am   BACKBONE|DICT|INTERRES
     7    4    5 1    
     8    4   75 1    
     9    5    6 1    
    10    5   35 1    
    11    5   76 1    
    12    6    7 1    
    13    6   77 1    
    14    6   78 1    
    15    7    8 1    
    16    8    9 1    
    17    8   79 1    
    18    8   80 1    
    19    9   10 ar   
    20    9   14 ar   
    21   10   11 ar   
    22   10   81 1    
    23   11   12 ar   
    24   11   71 1    
    25   12   13 ar   
    26   12   82 1    
    27   13   14 ar   
    28   13   15 1    
    29   14   83 1    
    30   15   16 1    
    31   15   84 1    
    32   15   85 1    
    33   16   17 1    
    34   17   18 1    
    35   17   86 1    
    36   17   87 1    
    37   18   19 1    
    38   18   37 1    
    39   18   88 1    
    40   19   20 am   BACKBONE|DICT|INTERRES
    41   19   89 1    
    42   20   21 2    
    43   20   22 1    
    44   22   23 1    
    45   22   24 1    
    46   22   90 1    
    47   23   91 1    
    48   23   92 1    
    49   23   93 1    
    50   24   25 am   BACKBONE|DICT|INTERRES
    51   24   94 1    
    52   25   26 2    
    53   25   27 1    
    54   27   28 1    
    55   27   29 1    
    56   27   95 1    
    57   28   96 1    
    58   28   97 1    
    59   28   98 1    
    60   29   30 am   BACKBONE|DICT|INTERRES
    61   29   99 1    
    62   30   31 2    
    63   30   32 1    
    64   32   33 1    
    65   32   34 1    
    66   32  100 1    
    67   33  101 1    
    68   33  102 1    
    69   33  103 1    
    70   34   35 am   BACKBONE|DICT|INTERRES
    71   34  104 1    
    72   35   36 2    
    73   37   38 2    
    74   37   39 am   BACKBONE|DICT|INTERRES
    75   39   40 1    
    76   39  105 1    
    77   40   41 1    
    78   40   42 1    
    79   40  106 1    
    80   41  107 1    
    81   41  108 1    
    82   41  109 1    
    83   42   43 2    
    84   42   44 am   BACKBONE|DICT|INTERRES
    85   44   45 1    
    86   44  110 1    
    87   45   46 1    
    88   45   47 1    
    89   45  111 1    
    90   46  112 1    
    91   46  113 1    
    92   46  114 1    
    93   47   48 2    
    94   47   49 am   BACKBONE|DICT|INTERRES
    95   49   50 1    
    96   49  115 1    
    97   50   51 1    
    98   50   52 1    
    99   50  116 1    
   100   51  117 1    
   101   51  118 1    
   102   51  119 1    
   103   52   53 2    
   104   52   54 am   BACKBONE|DICT|INTERRES
   105   54   55 1    
   106   54  120 1    
   107   55   56 1    
   108   55   57 1    
   109   55  121 1    
   110   56  122 1    
   111   56  123 1    
   112   56  124 1    
   113   57   58 2    
   114   57   59 am   BACKBONE|DICT|INTERRES
   115   59   60 1    
   116   59  125 1    
   117   60   61 1    
   118   60   62 1    
   119   60  126 1    
   120   61  127 1    
   121   61  128 1    
   122   61  129 1    
   123   62   63 2    
   124   62   64 am   BACKBONE|DICT|INTERRES
   125   64   65 1    
   126   64  130 1    
   127   65   66 1    
   128   65   69 1    
   129   65  131 1    
   130   66   67 am   BACKBONE|DICT|INTERRES
   131   66   68 2    
   132   67  132 1    
   133   67  133 1    
   134   69   70 1    
   135   69  134 1    
   136   69  135 1    
   137   70   71 1    
   138   71  136 1    
   139   71  137 1    
@<TRIPOS>SUBSTRUCTURE
     1 UNK         1 GROUP             0       ****    0 ROOT    
