@<TRIPOS>MOLECULE
3R137
137   139    1
SMALL
USER_CHARGES


@<TRIPOS>ATOM
      1 CA         27.2472   -1.2934    3.0482 C.3       0 UNK        -0.2020 
      2 C          27.2570   -1.5177    1.5433 C.2       0 UNK         0.4855 
      3 O          27.3080   -0.5521    0.7820 O.2       0 UNK        -0.5197 
      4 N          27.2164   -2.7840    1.1101 N.am      1 UNK        -0.4892 
      5 CA         27.1508   -3.1838   -0.2985 C.3       1 UNK         0.0835 
      6 C6         27.5403   -4.6769   -0.4627 C.3       12 UNK        -0.0855 
      7 S7         27.8601   -5.1962   -2.1896 S.3       12 UNK        -0.2931 
      8 C8         29.6596   -5.5104   -2.2039 C.3       12 UNK         0.0378 
      9 C9         30.4359   -4.3089   -2.7244 C.ar      12 UNK        -0.0802 
     10 C10        31.1019   -4.3696   -3.9543 C.ar      12 UNK        -0.0944 
     11 C11        31.7978   -3.2594   -4.4481 C.ar      12 UNK        -0.0787 
     12 C12        31.8102   -2.0825   -3.6941 C.ar      12 UNK        -0.0862 
     13 C13        31.1111   -1.9929   -2.4897 C.ar      12 UNK        -0.0733 
     14 C14        30.4664   -3.1233   -1.9877 C.ar      12 UNK        -0.0832 
     15 C15        31.0053   -0.6656   -1.7558 C.3       12 UNK         0.0240 
     16 S16        29.6051    0.3198   -2.3923 S.3       12 UNK        -0.2522 
     17 C17        30.3402    1.0946   -3.8771 C.3       12 UNK        -0.0967 
     18 CA         29.4552    1.0987   -5.1514 C.3       5 UNK         0.0660 
     19 N          28.8284   -0.1879   -5.4725 N.am      5 UNK        -0.4015 
     20 C          29.0801   -0.8999   -6.5825 C.2       4 UNK         0.4946 
     21 O          29.9680   -0.6395   -7.3986 O.2       4 UNK        -0.5353 
     22 CA         28.1260   -2.0664   -6.8992 C.3       4 UNK         0.0277 
     23 CB         28.5007   -3.3142   -6.0855 C.3       4 UNK        -0.1981 
     24 N          26.7118   -1.7655   -6.6703 N.am      4 UNK        -0.4209 
     25 C          26.0414   -0.6610   -7.0305 C.2       3 UNK         0.4942 
     26 O          26.5195    0.2533   -7.7028 O.2       3 UNK        -0.5208 
     27 CA         24.6073   -0.5161   -6.4909 C.3       3 UNK         0.0250 
     28 CB         23.5990   -0.9796   -7.5536 C.3       3 UNK        -0.1990 
     29 N          24.3364   -1.2221   -5.2284 N.am      3 UNK        -0.4232 
     30 C          25.0689   -1.1867   -4.1034 C.2       2 UNK         0.4993 
     31 O          26.1197   -0.5437   -3.9893 O.2       2 UNK        -0.5286 
     32 CA         24.5817   -2.0529   -2.9316 C.3       2 UNK         0.0209 
     33 CB         23.8271   -3.3264   -3.3805 C.3       2 UNK        -0.1931 
     34 N          25.7527   -2.4098   -2.1405 N.am      2 UNK        -0.4546 
     35 C          25.7607   -2.8747   -0.8892 C.2       1 UNK         0.5154 
     36 O          24.7443   -3.0783   -0.2189 O.2       1 UNK        -0.5181 
     37 C          28.4296    2.2457   -5.1154 C.2       5 UNK         0.5014 
     38 O          28.7902    3.3507   -5.5211 O.2       5 UNK        -0.5248 
     39 N          27.1835    2.0039   -4.6731 N.am      6 UNK        -0.4434 
     40 CA         26.1657    3.0529   -4.5003 C.3       6 UNK         0.0363 
     41 CB         24.9562    2.4958   -3.7333 C.3       6 UNK        -0.1936 
     42 C          25.7164    3.7303   -5.8091 C.2       6 UNK         0.5081 
     43 O          25.3329    4.8998   -5.7762 O.2       6 UNK        -0.5248 
     44 N          25.7963    3.0039   -6.9304 N.am      7 UNK        -0.4718 
     45 CA         25.5888    3.5147   -8.2881 C.3       7 UNK         0.0273 
     46 CB         24.4031    2.7654   -8.9224 C.3       7 UNK        -0.1935 
     47 C          26.8638    3.3573   -9.1397 C.2       7 UNK         0.5018 
     48 O          26.8034    3.5692  -10.3514 O.2       7 UNK        -0.5186 
     49 N          27.9810    2.9696   -8.5004 N.am      8 UNK        -0.4240 
     50 CA         29.2900    2.6427   -9.0786 C.3       8 UNK         0.0235 
     51 CB         29.9797    3.9244   -9.5917 C.3       8 UNK        -0.2000 
     52 C          29.2390    1.5248  -10.1420 C.2       8 UNK         0.4941 
     53 O          30.0337    1.5473  -11.0835 O.2       8 UNK        -0.5273 
     54 N          28.3117    0.5667   -9.9871 N.am      9 UNK        -0.4262 
     55 CA         28.0217   -0.4677  -10.9853 C.3       9 UNK         0.0264 
     56 CB         26.6853   -1.1496  -10.6489 C.3       9 UNK        -0.1955 
     57 C          29.1329   -1.5159  -11.1778 C.2       9 UNK         0.5031 
     58 O          29.1474   -2.1655  -12.2250 O.2       9 UNK        -0.5390 
     59 N          30.0279   -1.6749  -10.1930 N.am      10 UNK        -0.4204 
     60 CA         31.1534   -2.6126  -10.2514 C.3       10 UNK         0.0237 
     61 CB         30.8103   -3.8910   -9.4681 C.3       10 UNK        -0.1985 
     62 C          32.4597   -1.9828   -9.7506 C.2       10 UNK         0.4970 
     63 O          33.5008   -2.1942  -10.3733 O.2       10 UNK        -0.4914 
     64 N          32.3874   -1.2223   -8.6532 N.am      11 UNK        -0.4285 
     65 CA         33.5220   -0.5356   -8.0176 C.3       11 UNK         0.1007 
     66 C          33.6230    0.9694   -8.4044 C.2       11 UNK         0.5703 
     67 N          32.8188    1.4824   -9.3276 N.am      11 UNK        -0.7361 
     68 O          34.4685    1.6871   -7.8755 O.2       11 UNK        -0.4986 
     69 C69        33.4863   -0.7468   -6.4800 C.3       12 UNK        -0.0947 
     70 S70        34.0258   -2.4263   -5.9952 S.3       12 UNK        -0.2240 
     71 C71        32.4508   -3.3323   -5.8288 C.3       12 UNK         0.0194 
     72 H72        27.2155   -2.2319    3.6014 H         1 UNK         0.0906 
     73 H73        28.1420   -0.7509    3.3523 H         1 UNK         0.0906 
     74 H74        26.3771   -0.7024    3.3332 H         1 UNK         0.0906 
     75 H75        27.1334   -3.5332    1.7829 H         1 UNK         0.3140 
     76 H76        27.8709   -2.5684   -0.8387 H         1 UNK         0.1085 
     77 H77        26.7581   -5.3203   -0.0545 H         1 UNK         0.0836 
     78 H78        28.4271   -4.8894    0.1357 H         1 UNK         0.0836 
     79 H79        29.8453   -6.3794   -2.8370 H         1 UNK         0.0731 
     80 H80        30.0183   -5.7845   -1.2112 H         1 UNK         0.0731 
     81 H81        31.0643   -5.2795   -4.5377 H         1 UNK         0.1312 
     82 H82        32.3468   -1.2218   -4.0521 H         1 UNK         0.1406 
     83 H83        29.9637   -3.0714   -1.0346 H         1 UNK         0.1631 
     84 H84        31.9346   -0.1005   -1.8420 H         1 UNK         0.0717 
     85 H85        30.8529   -0.8397   -0.6894 H         1 UNK         0.0717 
     86 H86        30.6353    2.1118   -3.6105 H         1 UNK         0.0934 
     87 H87        31.2793    0.6060   -4.1174 H         1 UNK         0.0934 
     88 H88        30.1261    1.3656   -5.9708 H         1 UNK         0.0739 
     89 H89        28.0669   -0.4800   -4.8711 H         1 UNK         0.3093 
     90 H90        28.2355   -2.3053   -7.9575 H         1 UNK         0.0818 
     91 H91        29.5225   -3.6248   -6.2928 H         1 UNK         0.0819 
     92 H92        28.4261   -3.1385   -5.0110 H         1 UNK         0.0819 
     93 H93        27.8589   -4.1602   -6.3314 H         1 UNK         0.0819 
     94 H94        26.2048   -2.4418   -6.1194 H         1 UNK         0.3041 
     95 H95        24.4400    0.5459   -6.3106 H         1 UNK         0.0784 
     96 H96        23.7723   -0.4802   -8.5078 H         1 UNK         0.0793 
     97 H97        23.6673   -2.0532   -7.7341 H         1 UNK         0.0793 
     98 H98        22.5751   -0.7529   -7.2556 H         1 UNK         0.0793 
     99 H99        23.5022   -1.7914   -5.2189 H         1 UNK         0.3024 
    100 H100       23.9212   -1.4340   -2.3204 H         1 UNK         0.1171 
    101 H101       23.5523   -3.9491   -2.5291 H         1 UNK         0.0786 
    102 H102       22.8967   -3.0842   -3.8950 H         1 UNK         0.0786 
    103 H103       24.4325   -3.9386   -4.0504 H         1 UNK         0.0786 
    104 H104       26.6314   -2.1987   -2.5966 H         1 UNK         0.2977 
    105 H105       26.9243    1.0732   -4.3518 H         1 UNK         0.3127 
    106 H106       26.6155    3.8317   -3.8804 H         1 UNK         0.0770 
    107 H107       24.4157    1.7483   -4.3115 H         1 UNK         0.0814 
    108 H108       24.2488    3.2915   -3.4961 H         1 UNK         0.0814 
    109 H109       25.2578    2.0396   -2.7902 H         1 UNK         0.0814 
    110 H110       26.1135    2.0414   -6.8772 H         1 UNK         0.2983 
    111 H111       25.3538    4.5809   -8.2674 H         1 UNK         0.0947 
    112 H112       24.1532    3.1831   -9.8984 H         1 UNK         0.0806 
    113 H113       23.5095    2.8356   -8.3022 H         1 UNK         0.0806 
    114 H114       24.6293    1.7095   -9.0703 H         1 UNK         0.0806 
    115 H115       27.9285    2.9008   -7.4925 H         1 UNK         0.3000 
    116 H116       29.8956    2.2468   -8.2624 H         1 UNK         0.0850 
    117 H117       31.0005    3.7224   -9.9162 H         1 UNK         0.0810 
    118 H118       30.0351    4.6830   -8.8110 H         1 UNK         0.0810 
    119 H119       29.4491    4.3547  -10.4417 H         1 UNK         0.0810 
    120 H120       27.7039    0.5950   -9.1715 H         1 UNK         0.3040 
    121 H121       27.8989    0.0405  -11.9443 H         1 UNK         0.0766 
    122 H122       25.8837   -0.4202  -10.5298 H         1 UNK         0.0812 
    123 H123       26.7475   -1.7345   -9.7324 H         1 UNK         0.0812 
    124 H124       26.3863   -1.8316  -11.4459 H         1 UNK         0.0812 
    125 H125       29.9431   -1.0986   -9.3620 H         1 UNK         0.3205 
    126 H126       31.3406   -2.8996  -11.2886 H         1 UNK         0.0754 
    127 H127       31.6566   -4.5792   -9.4462 H         1 UNK         0.0769 
    128 H128       29.9745   -4.4194   -9.9270 H         1 UNK         0.0769 
    129 H129       30.5372   -3.6716   -8.4377 H         1 UNK         0.0769 
    130 H130       31.4917   -1.0733   -8.1931 H         1 UNK         0.2981 
    131 H131       34.4545   -0.9688   -8.3835 H         1 UNK         0.0541 
    132 H132       32.1459    0.9096   -9.8111 H         1 UNK         0.3459 
    133 H133       32.9231    2.4526   -9.5753 H         1 UNK         0.3459 
    134 H134       34.1573   -0.0550   -5.9682 H         1 UNK         0.0612 
    135 H135       32.4866   -0.5336   -6.1013 H         1 UNK         0.0612 
    136 H136       32.6430   -4.3736   -6.0910 H         1 UNK         0.0624 
    137 H137       31.7474   -2.9544   -6.5681 H         1 UNK         0.0624 
@<TRIPOS>BOND
     1    1    2 1    
     2    1   72 1    
     3    1   73 1    
     4    1   74 1    
     5    2    3 2    
     6    2    4 am   BACKBONE|DICT|INTERRES
     7    4    5 1    
     8    4   75 1    
     9    5    6 1    
    10    5   35 1    
    11    5   76 1    
    12    6    7 1    
    13    6   77 1    
    14    6   78 1    
    15    7    8 1    
    16    8    9 1    
    17    8   79 1    
    18    8   80 1    
    19    9   10 ar   
    20    9   14 ar   
    21   10   11 ar   
    22   10   81 1    
    23   11   12 ar   
    24   11   71 1    
    25   12   13 ar   
    26   12   82 1    
    27   13   14 ar   
    28   13   15 1    
    29   14   83 1    
    30   15   16 1    
    31   15   84 1    
    32   15   85 1    
    33   16   17 1    
    34   17   18 1    
    35   17   86 1    
    36   17   87 1    
    37   18   19 1    
    38   18   37 1    
    39   18   88 1    
    40   19   20 am   BACKBONE|DICT|INTERRES
    41   19   89 1    
    42   20   21 2    
    43   20   22 1    
    44   22   23 1    
    45   22   24 1    
    46   22   90 1    
    47   23   91 1    
    48   23   92 1    
    49   23   93 1    
    50   24   25 am   BACKBONE|DICT|INTERRES
    51   24   94 1    
    52   25   26 2    
    53   25   27 1    
    54   27   28 1    
    55   27   29 1    
    56   27   95 1    
    57   28   96 1    
    58   28   97 1    
    59   28   98 1    
    60   29   30 am   BACKBONE|DICT|INTERRES
    61   29   99 1    
    62   30   31 2    
    63   30   32 1    
    64   32   33 1    
    65   32   34 1    
    66   32  100 1    
    67   33  101 1    
    68   33  102 1    
    69   33  103 1    
    70   34   35 am   BACKBONE|DICT|INTERRES
    71   34  104 1    
    72   35   36 2    
    73   37   38 2    
    74   37   39 am   BACKBONE|DICT|INTERRES
    75   39   40 1    
    76   39  105 1    
    77   40   41 1    
    78   40   42 1    
    79   40  106 1    
    80   41  107 1    
    81   41  108 1    
    82   41  109 1    
    83   42   43 2    
    84   42   44 am   BACKBONE|DICT|INTERRES
    85   44   45 1    
    86   44  110 1    
    87   45   46 1    
    88   45   47 1    
    89   45  111 1    
    90   46  112 1    
    91   46  113 1    
    92   46  114 1    
    93   47   48 2    
    94   47   49 am   BACKBONE|DICT|INTERRES
    95   49   50 1    
    96   49  115 1    
    97   50   51 1    
    98   50   52 1    
    99   50  116 1    
   100   51  117 1    
   101   51  118 1    
   102   51  119 1    
   103   52   53 2    
   104   52   54 am   BACKBONE|DICT|INTERRES
   105   54   55 1    
   106   54  120 1    
   107   55   56 1    
   108   55   57 1    
   109   55  121 1    
   110   56  122 1    
   111   56  123 1    
   112   56  124 1    
   113   57   58 2    
   114   57   59 am   BACKBONE|DICT|INTERRES
   115   59   60 1    
   116   59  125 1    
   117   60   61 1    
   118   60   62 1    
   119   60  126 1    
   120   61  127 1    
   121   61  128 1    
   122   61  129 1    
   123   62   63 2    
   124   62   64 am   BACKBONE|DICT|INTERRES
   125   64   65 1    
   126   64  130 1    
   127   65   66 1    
   128   65   69 1    
   129   65  131 1    
   130   66   67 am   BACKBONE|DICT|INTERRES
   131   66   68 2    
   132   67  132 1    
   133   67  133 1    
   134   69   70 1    
   135   69  134 1    
   136   69  135 1    
   137   70   71 1    
   138   71  136 1    
   139   71  137 1    
@<TRIPOS>SUBSTRUCTURE
     1 UNK         1 GROUP             0       ****    0 ROOT    
