@<TRIPOS>MOLECULE
3R137
137   139    1
SMALL
USER_CHARGES


@<TRIPOS>ATOM
      1 CA         22.8915   -4.6389   -2.5569 C.3       0 UNK        -0.2020 
      2 C          23.9485   -3.7856   -1.8735 C.2       0 UNK         0.4855 
      3 O          23.6274   -2.7223   -1.3421 O.2       0 UNK        -0.5197 
      4 N          25.2107   -4.2354   -1.8838 N.am      1 UNK        -0.4892 
      5 CA         26.3562   -3.4907   -1.3512 C.3       1 UNK         0.0835 
      6 C6         27.6190   -4.3786   -1.2623 C.3       12 UNK        -0.0855 
      7 S7         28.8878   -3.6777   -0.1493 S.3       12 UNK        -0.2931 
      8 C8         30.3664   -4.6482   -0.5920 C.3       12 UNK         0.0378 
      9 C9         30.9133   -4.2601   -1.9583 C.ar      12 UNK        -0.0802 
     10 C10        31.7647   -3.1564   -2.0940 C.ar      12 UNK        -0.0944 
     11 C11        32.2441   -2.7859   -3.3550 C.ar      12 UNK        -0.0787 
     12 C12        31.8819   -3.5356   -4.4752 C.ar      12 UNK        -0.0862 
     13 C13        30.9845   -4.5981   -4.3581 C.ar      12 UNK        -0.0733 
     14 C14        30.5369   -4.9847   -3.0938 C.ar      12 UNK        -0.0832 
     15 C15        30.4083   -5.2413   -5.6097 C.3       12 UNK         0.0240 
     16 S16        28.7855   -4.5074   -6.0246 S.3       12 UNK        -0.2522 
     17 C17        29.1734   -2.7213   -5.9941 C.3       12 UNK        -0.0967 
     18 CA         28.1652   -1.8557   -6.7772 C.3       5 UNK         0.0660 
     19 N          26.8168   -1.9323   -6.2165 N.am      5 UNK        -0.4015 
     20 C          25.7015   -1.6221   -6.8886 C.2       4 UNK         0.4946 
     21 O          25.6949   -1.0611   -7.9839 O.2       4 UNK        -0.5353 
     22 CA         24.3717   -2.0289   -6.2406 C.3       4 UNK         0.0277 
     23 CB         24.3216   -3.5400   -5.9473 C.3       4 UNK        -0.1981 
     24 N          24.1729   -1.2828   -5.0037 N.am      4 UNK        -0.4209 
     25 C          23.3275   -0.2534   -4.8590 C.2       3 UNK         0.4942 
     26 O          22.5302    0.1065   -5.7258 O.2       3 UNK        -0.5208 
     27 CA         23.3699    0.5215   -3.5271 C.3       3 UNK         0.0250 
     28 CB         22.1259    0.2116   -2.6785 C.3       3 UNK        -0.1990 
     29 N          24.5762    0.2756   -2.7299 N.am      3 UNK        -0.4232 
     30 C          25.8122    0.6468   -3.0941 C.2       2 UNK         0.4993 
     31 O          26.0634    1.2343   -4.1450 O.2       2 UNK        -0.5286 
     32 CA         26.9724    0.2289   -2.1734 C.3       2 UNK         0.0209 
     33 CB         27.2165    1.2940   -1.0933 C.3       2 UNK        -0.1931 
     34 N          26.7795   -1.0786   -1.5400 N.am      2 UNK        -0.4546 
     35 C          26.6036   -2.2297   -2.2031 C.2       1 UNK         0.5154 
     36 O          26.5984   -2.3163   -3.4354 O.2       1 UNK        -0.5181 
     37 C          28.6797   -0.4116   -6.8964 C.2       5 UNK         0.5014 
     38 O          29.1585   -0.0359   -7.9670 O.2       5 UNK        -0.5248 
     39 N          28.5934    0.3780   -5.8154 N.am      6 UNK        -0.4434 
     40 CA         29.0876    1.7618   -5.7987 C.3       6 UNK         0.0363 
     41 CB         29.2367    2.2838   -4.3611 C.3       6 UNK        -0.1936 
     42 C          28.2099    2.6941   -6.6468 C.2       6 UNK         0.5081 
     43 O          28.7425    3.5816   -7.3108 O.2       6 UNK        -0.5248 
     44 N          26.8971    2.4266   -6.6795 N.am      7 UNK        -0.4718 
     45 CA         25.9278    3.0577   -7.5809 C.3       7 UNK         0.0273 
     46 CB         24.5185    2.5524   -7.2373 C.3       7 UNK        -0.1935 
     47 C          26.2386    2.8234   -9.0729 C.2       7 UNK         0.5018 
     48 O          26.0039    3.7178   -9.8856 O.2       7 UNK        -0.5186 
     49 N          26.7937    1.6473   -9.3980 N.am      8 UNK        -0.4240 
     50 CA         27.2957    1.2880  -10.7275 C.3       8 UNK         0.0235 
     51 CB         27.1592   -0.2340  -10.9094 C.3       8 UNK        -0.2000 
     52 C          28.7532    1.7337  -10.9690 C.2       8 UNK         0.4941 
     53 O          29.2702    1.4942  -12.0609 O.2       8 UNK        -0.5273 
     54 N          29.3957    2.3448   -9.9603 N.am      9 UNK        -0.4262 
     55 CA         30.7976    2.7798   -9.9107 C.3       9 UNK         0.0264 
     56 CB         31.0739    3.8871  -10.9499 C.3       9 UNK        -0.1955 
     57 C          31.8179    1.6249   -9.9844 C.2       9 UNK         0.5031 
     58 O          32.9713    1.8576  -10.3528 O.2       9 UNK        -0.5390 
     59 N          31.4078    0.4070   -9.5993 N.am      10 UNK        -0.4204 
     60 CA         32.2467   -0.7961   -9.6161 C.3       10 UNK         0.0237 
     61 CB         31.3581   -2.0453   -9.5064 C.3       10 UNK        -0.1985 
     62 C          33.3363   -0.7979   -8.5290 C.2       10 UNK         0.4970 
     63 O          34.3310   -1.5073   -8.6836 O.2       10 UNK        -0.4914 
     64 N          33.1482    0.0012   -7.4697 N.am      11 UNK        -0.4285 
     65 CA         34.1507    0.2483   -6.4204 C.3       11 UNK         0.1007 
     66 C          35.3311    1.1619   -6.8684 C.2       11 UNK         0.5703 
     67 N          35.2893    1.7936   -8.0375 N.am      11 UNK        -0.7361 
     68 O          36.3120    1.2936   -6.1403 O.2       11 UNK        -0.4986 
     69 C69        33.5127    0.7741   -5.1043 C.3       12 UNK        -0.0947 
     70 S70        32.1666   -0.2834   -4.4820 S.3       12 UNK        -0.2240 
     71 C71        33.0959   -1.5412   -3.5452 C.3       12 UNK         0.0194 
     72 H72        23.3307   -5.4757   -3.0996 H         1 UNK         0.0906 
     73 H73        22.3253   -4.0354   -3.2659 H         1 UNK         0.0906 
     74 H74        22.1965   -5.0370   -1.8182 H         1 UNK         0.0906 
     75 H75        25.4275   -5.1014   -2.3562 H         1 UNK         0.3140 
     76 H76        26.0851   -3.1806   -0.3391 H         1 UNK         0.1085 
     77 H77        28.0291   -4.5456   -2.2581 H         1 UNK         0.0836 
     78 H78        27.3584   -5.3638   -0.8718 H         1 UNK         0.0836 
     79 H79        31.1337   -4.4858    0.1664 H         1 UNK         0.0731 
     80 H80        30.1283   -5.7127   -0.5594 H         1 UNK         0.0731 
     81 H81        32.0307   -2.5736   -1.2226 H         1 UNK         0.1312 
     82 H82        32.2305   -3.2292   -5.4522 H         1 UNK         0.1406 
     83 H83        29.8479   -5.8135   -3.0036 H         1 UNK         0.1631 
     84 H84        30.2918   -6.3157   -5.4610 H         1 UNK         0.0717 
     85 H85        31.0877   -5.1169   -6.4545 H         1 UNK         0.0717 
     86 H86        29.2283   -2.3982   -4.9519 H         1 UNK         0.0934 
     87 H87        30.1722   -2.5879   -6.4099 H         1 UNK         0.0934 
     88 H88        28.1174   -2.2531   -7.7940 H         1 UNK         0.0739 
     89 H89        26.7417   -2.3253   -5.2806 H         1 UNK         0.3093 
     90 H90        23.5779   -1.8052   -6.9568 H         1 UNK         0.0818 
     91 H91        24.5436   -4.1193   -6.8446 H         1 UNK         0.0819 
     92 H92        25.0370   -3.8389   -5.1803 H         1 UNK         0.0819 
     93 H93        23.3296   -3.8389   -5.6094 H         1 UNK         0.0819 
     94 H94        24.8173   -1.4870   -4.2491 H         1 UNK         0.3041 
     95 H95        23.3527    1.5844   -3.7779 H         1 UNK         0.0784 
     96 H96        21.2125    0.4547   -3.2231 H         1 UNK         0.0793 
     97 H97        22.0716   -0.8439   -2.4110 H         1 UNK         0.0793 
     98 H98        22.1162    0.7941   -1.7571 H         1 UNK         0.0793 
     99 H99        24.4579   -0.2532   -1.8761 H         1 UNK         0.3024 
    100 H100       27.8700    0.1568   -2.7894 H         1 UNK         0.1171 
    101 H101       27.3728    2.2770   -1.5398 H         1 UNK         0.0786 
    102 H102       26.3708    1.3787   -0.4096 H         1 UNK         0.0786 
    103 H103       28.1043    1.0645   -0.5036 H         1 UNK         0.0786 
    104 H104       26.7805   -1.0957   -0.5299 H         1 UNK         0.2977 
    105 H105       28.1300    0.0361   -4.9873 H         1 UNK         0.3127 
    106 H106       30.0852    1.7579   -6.2440 H         1 UNK         0.0770 
    107 H107       28.2747    2.4667   -3.8861 H         1 UNK         0.0814 
    108 H108       29.7751    3.2322   -4.3560 H         1 UNK         0.0814 
    109 H109       29.8013    1.5912   -3.7372 H         1 UNK         0.0814 
    110 H110       26.5379    1.7439   -6.0183 H         1 UNK         0.2983 
    111 H111       25.9631    4.1344   -7.4022 H         1 UNK         0.0947 
    112 H112       24.4283    1.4763   -7.3927 H         1 UNK         0.0806 
    113 H113       23.7659    3.0363   -7.8611 H         1 UNK         0.0806 
    114 H114       24.2628    2.7615   -6.1983 H         1 UNK         0.0806 
    115 H115       26.9256    0.9568   -8.6694 H         1 UNK         0.3000 
    116 H116       26.6800    1.7762  -11.4858 H         1 UNK         0.0850 
    117 H117       27.4723   -0.5420  -11.9078 H         1 UNK         0.0810 
    118 H118       26.1258   -0.5567  -10.7812 H         1 UNK         0.0810 
    119 H119       27.7703   -0.7828  -10.1919 H         1 UNK         0.0810 
    120 H120       28.8777    2.5078   -9.1043 H         1 UNK         0.3040 
    121 H121       30.9329    3.2235   -8.9236 H         1 UNK         0.0766 
    122 H122       31.0369    3.5045  -11.9702 H         1 UNK         0.0812 
    123 H123       32.0628    4.3233  -10.8041 H         1 UNK         0.0812 
    124 H124       30.3496    4.6975  -10.8676 H         1 UNK         0.0812 
    125 H125       30.4669    0.3015   -9.2209 H         1 UNK         0.3205 
    126 H126       32.7563   -0.8323  -10.5814 H         1 UNK         0.0754 
    127 H127       31.9528   -2.9563   -9.5857 H         1 UNK         0.0769 
    128 H128       30.6129   -2.0734  -10.3018 H         1 UNK         0.0769 
    129 H129       30.8320   -2.0830   -8.5547 H         1 UNK         0.0769 
    130 H130       32.2968    0.5374   -7.4108 H         1 UNK         0.2981 
    131 H131       34.6082   -0.7148   -6.1875 H         1 UNK         0.0541 
    132 H132       36.0670    2.3752   -8.3063 H         1 UNK         0.3459 
    133 H133       34.5017    1.6901   -8.6624 H         1 UNK         0.3459 
    134 H134       33.1031    1.7741   -5.2579 H         1 UNK         0.0612 
    135 H135       34.2648    0.8709   -4.3190 H         1 UNK         0.0612 
    136 H136       34.0054   -1.8112   -4.0831 H         1 UNK         0.0624 
    137 H137       33.4064   -1.1228   -2.5867 H         1 UNK         0.0624 
@<TRIPOS>BOND
     1    1    2 1    
     2    1   72 1    
     3    1   73 1    
     4    1   74 1    
     5    2    3 2    
     6    2    4 am   BACKBONE|DICT|INTERRES
     7    4    5 1    
     8    4   75 1    
     9    5    6 1    
    10    5   35 1    
    11    5   76 1    
    12    6    7 1    
    13    6   77 1    
    14    6   78 1    
    15    7    8 1    
    16    8    9 1    
    17    8   79 1    
    18    8   80 1    
    19    9   10 ar   
    20    9   14 ar   
    21   10   11 ar   
    22   10   81 1    
    23   11   12 ar   
    24   11   71 1    
    25   12   13 ar   
    26   12   82 1    
    27   13   14 ar   
    28   13   15 1    
    29   14   83 1    
    30   15   16 1    
    31   15   84 1    
    32   15   85 1    
    33   16   17 1    
    34   17   18 1    
    35   17   86 1    
    36   17   87 1    
    37   18   19 1    
    38   18   37 1    
    39   18   88 1    
    40   19   20 am   BACKBONE|DICT|INTERRES
    41   19   89 1    
    42   20   21 2    
    43   20   22 1    
    44   22   23 1    
    45   22   24 1    
    46   22   90 1    
    47   23   91 1    
    48   23   92 1    
    49   23   93 1    
    50   24   25 am   BACKBONE|DICT|INTERRES
    51   24   94 1    
    52   25   26 2    
    53   25   27 1    
    54   27   28 1    
    55   27   29 1    
    56   27   95 1    
    57   28   96 1    
    58   28   97 1    
    59   28   98 1    
    60   29   30 am   BACKBONE|DICT|INTERRES
    61   29   99 1    
    62   30   31 2    
    63   30   32 1    
    64   32   33 1    
    65   32   34 1    
    66   32  100 1    
    67   33  101 1    
    68   33  102 1    
    69   33  103 1    
    70   34   35 am   BACKBONE|DICT|INTERRES
    71   34  104 1    
    72   35   36 2    
    73   37   38 2    
    74   37   39 am   BACKBONE|DICT|INTERRES
    75   39   40 1    
    76   39  105 1    
    77   40   41 1    
    78   40   42 1    
    79   40  106 1    
    80   41  107 1    
    81   41  108 1    
    82   41  109 1    
    83   42   43 2    
    84   42   44 am   BACKBONE|DICT|INTERRES
    85   44   45 1    
    86   44  110 1    
    87   45   46 1    
    88   45   47 1    
    89   45  111 1    
    90   46  112 1    
    91   46  113 1    
    92   46  114 1    
    93   47   48 2    
    94   47   49 am   BACKBONE|DICT|INTERRES
    95   49   50 1    
    96   49  115 1    
    97   50   51 1    
    98   50   52 1    
    99   50  116 1    
   100   51  117 1    
   101   51  118 1    
   102   51  119 1    
   103   52   53 2    
   104   52   54 am   BACKBONE|DICT|INTERRES
   105   54   55 1    
   106   54  120 1    
   107   55   56 1    
   108   55   57 1    
   109   55  121 1    
   110   56  122 1    
   111   56  123 1    
   112   56  124 1    
   113   57   58 2    
   114   57   59 am   BACKBONE|DICT|INTERRES
   115   59   60 1    
   116   59  125 1    
   117   60   61 1    
   118   60   62 1    
   119   60  126 1    
   120   61  127 1    
   121   61  128 1    
   122   61  129 1    
   123   62   63 2    
   124   62   64 am   BACKBONE|DICT|INTERRES
   125   64   65 1    
   126   64  130 1    
   127   65   66 1    
   128   65   69 1    
   129   65  131 1    
   130   66   67 am   BACKBONE|DICT|INTERRES
   131   66   68 2    
   132   67  132 1    
   133   67  133 1    
   134   69   70 1    
   135   69  134 1    
   136   69  135 1    
   137   70   71 1    
   138   71  136 1    
   139   71  137 1    
@<TRIPOS>SUBSTRUCTURE
     1 UNK         1 GROUP             0       ****    0 ROOT    
