@<TRIPOS>MOLECULE
3R137
137   139    1
SMALL
USER_CHARGES


@<TRIPOS>ATOM
      1 CA         27.9741    0.4647    2.4356 C.3       0 UNK        -0.2020 
      2 C          27.9616   -0.8711    1.7063 C.2       0 UNK         0.4855 
      3 O          27.5721   -1.8783    2.2984 O.2       0 UNK        -0.5197 
      4 N          28.3916   -0.8706    0.4360 N.am      1 UNK        -0.4892 
      5 CA         28.4543   -2.0082   -0.4977 C.3       1 UNK         0.0835 
      6 C6         29.2864   -3.2172    0.0236 C.3       12 UNK        -0.0855 
      7 S7         31.0055   -2.7531    0.4341 S.3       12 UNK        -0.2931 
      8 C8         31.9466   -3.4866   -0.9465 C.3       12 UNK         0.0378 
      9 C9         31.5088   -2.9542   -2.3055 C.ar      12 UNK        -0.0802 
     10 C10        31.0396   -3.8324   -3.2879 C.ar      12 UNK        -0.0944 
     11 C11        30.6317   -3.3556   -4.5379 C.ar      12 UNK        -0.0787 
     12 C12        30.6738   -1.9795   -4.7885 C.ar      12 UNK        -0.0862 
     13 C13        31.1489   -1.0924   -3.8181 C.ar      12 UNK        -0.0733 
     14 C14        31.5787   -1.5861   -2.5844 C.ar      12 UNK        -0.0832 
     15 C15        31.1900    0.4011   -4.1016 C.3       12 UNK         0.0240 
     16 S16        29.8459    1.3088   -3.2656 S.3       12 UNK        -0.2522 
     17 C17        28.3522    0.4367   -3.8444 C.3       12 UNK        -0.0967 
     18 CA         28.0003    0.7258   -5.3264 C.3       5 UNK         0.0660 
     19 N          27.3152   -0.4086   -5.9465 N.am      5 UNK        -0.4015 
     20 C          27.1715   -0.5892   -7.2674 C.2       4 UNK         0.4946 
     21 O          27.6805    0.1512   -8.1094 O.2       4 UNK        -0.5353 
     22 CA         26.2906   -1.7668   -7.7360 C.3       4 UNK         0.0277 
     23 CB         27.1492   -3.0063   -8.0237 C.3       4 UNK        -0.1981 
     24 N          25.2412   -2.1389   -6.7845 N.am      4 UNK        -0.4209 
     25 C          24.2519   -1.3381   -6.3656 C.2       3 UNK         0.4942 
     26 O          24.0468   -0.2154   -6.8245 O.2       3 UNK        -0.5208 
     27 CA         23.3980   -1.8417   -5.1841 C.3       3 UNK         0.0250 
     28 CB         22.1062   -2.4951   -5.6992 C.3       3 UNK        -0.1990 
     29 N          24.0920   -2.7733   -4.2782 N.am      3 UNK        -0.4232 
     30 C          25.2493   -2.5207   -3.6475 C.2       2 UNK         0.4993 
     31 O          25.8690   -1.4630   -3.7791 O.2       2 UNK        -0.5286 
     32 CA         25.8443   -3.6609   -2.7993 C.3       2 UNK         0.0209 
     33 CB         26.2116   -4.8652   -3.6853 C.3       2 UNK        -0.1931 
     34 N          27.0507   -3.2339   -2.0825 N.am      2 UNK        -0.4546 
     35 C          27.0577   -2.4403   -1.0031 C.2       1 UNK         0.5154 
     36 O          26.0265   -2.0546   -0.4450 O.2       1 UNK        -0.5181 
     37 C          27.1745    2.0162   -5.4824 C.2       5 UNK         0.5014 
     38 O          27.7287    3.0469   -5.8640 O.2       5 UNK        -0.5248 
     39 N          25.8561    1.9250   -5.2451 N.am      6 UNK        -0.4434 
     40 CA         24.8976    3.0181   -5.4455 C.3       6 UNK         0.0363 
     41 CB         23.5391    2.6378   -4.8350 C.3       6 UNK        -0.1936 
     42 C          24.7457    3.4095   -6.9267 C.2       6 UNK         0.5081 
     43 O          24.5938    4.5927   -7.2295 O.2       6 UNK        -0.5248 
     44 N          24.8402    2.4175   -7.8230 N.am      7 UNK        -0.4718 
     45 CA         24.8951    2.5935   -9.2781 C.3       7 UNK         0.0273 
     46 CB         24.5753    1.2496   -9.9525 C.3       7 UNK        -0.1935 
     47 C          26.2433    3.1427   -9.7917 C.2       7 UNK         0.5018 
     48 O          26.3365    3.4623  -10.9775 O.2       7 UNK        -0.5186 
     49 N          27.2524    3.2347   -8.9111 N.am      8 UNK        -0.4240 
     50 CA         28.6185    3.7105   -9.1529 C.3       8 UNK         0.0235 
     51 CB         28.6248    5.2036   -9.5461 C.3       8 UNK        -0.2000 
     52 C          29.4175    2.8231  -10.1274 C.2       8 UNK         0.4941 
     53 O          30.2445    3.3364  -10.8835 O.2       8 UNK        -0.5273 
     54 N          29.1885    1.5025  -10.0751 N.am      9 UNK        -0.4262 
     55 CA         29.9328    0.5045  -10.8512 C.3       9 UNK         0.0264 
     56 CB         29.0603   -0.7460  -11.0372 C.3       9 UNK        -0.1955 
     57 C          31.2827    0.1319  -10.2087 C.2       9 UNK         0.5031 
     58 O          32.0991   -0.5110  -10.8697 O.2       9 UNK        -0.5390 
     59 N          31.4896    0.5182   -8.9395 N.am      10 UNK        -0.4204 
     60 CA         32.6989    0.3941   -8.1075 C.3       10 UNK         0.0237 
     61 CB         33.8867    1.1445   -8.7416 C.3       10 UNK        -0.1985 
     62 C          33.1078   -1.0385   -7.7108 C.2       10 UNK         0.4970 
     63 O          33.6651   -1.2068   -6.6259 O.2       10 UNK        -0.4914 
     64 N          32.8274   -2.0262   -8.5683 N.am      11 UNK        -0.4285 
     65 CA         33.1645   -3.4516   -8.4140 C.3       11 UNK         0.1007 
     66 C          34.7018   -3.7201   -8.4400 C.2       11 UNK         0.5703 
     67 N          35.1560   -4.8898   -8.0075 N.am      11 UNK        -0.7361 
     68 O          35.4936   -2.8999   -8.9030 O.2       11 UNK        -0.4986 
     69 C69        32.4281   -4.1290   -7.2176 C.3       12 UNK        -0.0947 
     70 S70        30.6171   -3.9333   -7.3021 S.3       12 UNK        -0.2240 
     71 C71        30.1311   -4.3428   -5.5906 C.3       12 UNK         0.0194 
     72 H72        26.9665    0.7238    2.7602 H         1 UNK         0.0906 
     73 H73        28.6114    0.4041    3.3176 H         1 UNK         0.0906 
     74 H74        28.3450    1.2730    1.8053 H         1 UNK         0.0906 
     75 H75        28.6780    0.0101    0.0320 H         1 UNK         0.3140 
     76 H76        28.9673   -1.6158   -1.3768 H         1 UNK         0.1085 
     77 H77        29.3114   -4.0218   -0.7130 H         1 UNK         0.0836 
     78 H78        28.8264   -3.6539    0.9109 H         1 UNK         0.0836 
     79 H79        31.8490   -4.5725   -0.9017 H         1 UNK         0.0731 
     80 H80        33.0062   -3.2685   -0.8062 H         1 UNK         0.0731 
     81 H81        30.9953   -4.8930   -3.0805 H         1 UNK         0.1312 
     82 H82        30.3409   -1.5963   -5.7430 H         1 UNK         0.1406 
     83 H83        31.9427   -0.9019   -1.8295 H         1 UNK         0.1631 
     84 H84        31.1409    0.5890   -5.1740 H         1 UNK         0.0717 
     85 H85        32.1475    0.8059   -3.7706 H         1 UNK         0.0717 
     86 H86        28.5048   -0.6311   -3.6892 H         1 UNK         0.0934 
     87 H87        27.5231    0.6904   -3.1804 H         1 UNK         0.0934 
     88 H88        28.9270    0.8683   -5.8848 H         1 UNK         0.0739 
     89 H89        26.8189   -1.0196   -5.3020 H         1 UNK         0.3093 
     90 H90        25.8056   -1.4644   -8.6651 H         1 UNK         0.0818 
     91 H91        27.9696   -2.7775   -8.7025 H         1 UNK         0.0819 
     92 H92        26.5607   -3.7976   -8.4884 H         1 UNK         0.0819 
     93 H93        27.5877   -3.4079   -7.1112 H         1 UNK         0.0819 
     94 H94        25.3191   -3.0505   -6.3591 H         1 UNK         0.3041 
     95 H95        23.1244   -0.9641   -4.5947 H         1 UNK         0.0784 
     96 H96        21.5603   -1.8157   -6.3557 H         1 UNK         0.0793 
     97 H97        22.3109   -3.4032   -6.2677 H         1 UNK         0.0793 
     98 H98        21.4370   -2.7547   -4.8786 H         1 UNK         0.0793 
     99 H99        23.6449   -3.6670   -4.1295 H         1 UNK         0.3024 
    100 H100       25.0924   -3.9682   -2.0686 H         1 UNK         0.1171 
    101 H101       26.6684   -5.6633   -3.0993 H         1 UNK         0.0786 
    102 H102       25.3307   -5.2918   -4.1662 H         1 UNK         0.0786 
    103 H103       26.9112   -4.5880   -4.4740 H         1 UNK         0.0786 
    104 H104       27.9315   -3.4792   -2.5100 H         1 UNK         0.2977 
    105 H105       25.4752    1.0314   -4.9661 H         1 UNK         0.3127 
    106 H106       25.2759    3.8929   -4.9121 H         1 UNK         0.0770 
    107 H107       23.0989    1.7706   -5.3275 H         1 UNK         0.0814 
    108 H108       22.8281    3.4595   -4.9311 H         1 UNK         0.0814 
    109 H109       23.6295    2.4117   -3.7725 H         1 UNK         0.0814 
    110 H110       24.8605    1.4619   -7.4777 H         1 UNK         0.2983 
    111 H111       24.1234    3.3122   -9.5624 H         1 UNK         0.0947 
    112 H112       24.4790    1.3684  -11.0325 H         1 UNK         0.0806 
    113 H113       23.6378    0.8298   -9.5870 H         1 UNK         0.0806 
    114 H114       25.3642    0.5189   -9.7776 H         1 UNK         0.0806 
    115 H115       27.0686    2.9386   -7.9601 H         1 UNK         0.3000 
    116 H116       29.1326    3.6289   -8.1942 H         1 UNK         0.0850 
    117 H117       29.6418    5.5968   -9.5734 H         1 UNK         0.0810 
    118 H118       28.0664    5.8045   -8.8282 H         1 UNK         0.0810 
    119 H119       28.1886    5.3659  -10.5321 H         1 UNK         0.0810 
    120 H120       28.5063    1.1390   -9.4088 H         1 UNK         0.3040 
    121 H121       30.1450    0.9152  -11.8406 H         1 UNK         0.0766 
    122 H122       28.0985   -0.4990  -11.4870 H         1 UNK         0.0812 
    123 H123       28.8705   -1.2417  -10.0871 H         1 UNK         0.0812 
    124 H124       29.5493   -1.4705  -11.6898 H         1 UNK         0.0812 
    125 H125       30.7137    0.9854   -8.4930 H         1 UNK         0.3205 
    126 H126       32.4589    0.9074   -7.1757 H         1 UNK         0.0754 
    127 H127       34.7473    1.1478   -8.0712 H         1 UNK         0.0769 
    128 H128       33.6341    2.1843   -8.9501 H         1 UNK         0.0769 
    129 H129       34.2082    0.6828   -9.6757 H         1 UNK         0.0769 
    130 H130       32.4536   -1.7524   -9.4718 H         1 UNK         0.2981 
    131 H131       32.7948   -3.9208   -9.3261 H         1 UNK         0.0541 
    132 H132       36.1467   -5.0722   -8.0440 H         1 UNK         0.3459 
    133 H133       34.5302   -5.5912   -7.6451 H         1 UNK         0.3459 
    134 H134       32.6264   -5.2011   -7.1939 H         1 UNK         0.0612 
    135 H135       32.7933   -3.7283   -6.2710 H         1 UNK         0.0612 
    136 H136       29.0444   -4.3833   -5.5358 H         1 UNK         0.0624 
    137 H137       30.4881   -5.3498   -5.3688 H         1 UNK         0.0624 
@<TRIPOS>BOND
     1    1    2 1    
     2    1   72 1    
     3    1   73 1    
     4    1   74 1    
     5    2    3 2    
     6    2    4 am   BACKBONE|DICT|INTERRES
     7    4    5 1    
     8    4   75 1    
     9    5    6 1    
    10    5   35 1    
    11    5   76 1    
    12    6    7 1    
    13    6   77 1    
    14    6   78 1    
    15    7    8 1    
    16    8    9 1    
    17    8   79 1    
    18    8   80 1    
    19    9   10 ar   
    20    9   14 ar   
    21   10   11 ar   
    22   10   81 1    
    23   11   12 ar   
    24   11   71 1    
    25   12   13 ar   
    26   12   82 1    
    27   13   14 ar   
    28   13   15 1    
    29   14   83 1    
    30   15   16 1    
    31   15   84 1    
    32   15   85 1    
    33   16   17 1    
    34   17   18 1    
    35   17   86 1    
    36   17   87 1    
    37   18   19 1    
    38   18   37 1    
    39   18   88 1    
    40   19   20 am   BACKBONE|DICT|INTERRES
    41   19   89 1    
    42   20   21 2    
    43   20   22 1    
    44   22   23 1    
    45   22   24 1    
    46   22   90 1    
    47   23   91 1    
    48   23   92 1    
    49   23   93 1    
    50   24   25 am   BACKBONE|DICT|INTERRES
    51   24   94 1    
    52   25   26 2    
    53   25   27 1    
    54   27   28 1    
    55   27   29 1    
    56   27   95 1    
    57   28   96 1    
    58   28   97 1    
    59   28   98 1    
    60   29   30 am   BACKBONE|DICT|INTERRES
    61   29   99 1    
    62   30   31 2    
    63   30   32 1    
    64   32   33 1    
    65   32   34 1    
    66   32  100 1    
    67   33  101 1    
    68   33  102 1    
    69   33  103 1    
    70   34   35 am   BACKBONE|DICT|INTERRES
    71   34  104 1    
    72   35   36 2    
    73   37   38 2    
    74   37   39 am   BACKBONE|DICT|INTERRES
    75   39   40 1    
    76   39  105 1    
    77   40   41 1    
    78   40   42 1    
    79   40  106 1    
    80   41  107 1    
    81   41  108 1    
    82   41  109 1    
    83   42   43 2    
    84   42   44 am   BACKBONE|DICT|INTERRES
    85   44   45 1    
    86   44  110 1    
    87   45   46 1    
    88   45   47 1    
    89   45  111 1    
    90   46  112 1    
    91   46  113 1    
    92   46  114 1    
    93   47   48 2    
    94   47   49 am   BACKBONE|DICT|INTERRES
    95   49   50 1    
    96   49  115 1    
    97   50   51 1    
    98   50   52 1    
    99   50  116 1    
   100   51  117 1    
   101   51  118 1    
   102   51  119 1    
   103   52   53 2    
   104   52   54 am   BACKBONE|DICT|INTERRES
   105   54   55 1    
   106   54  120 1    
   107   55   56 1    
   108   55   57 1    
   109   55  121 1    
   110   56  122 1    
   111   56  123 1    
   112   56  124 1    
   113   57   58 2    
   114   57   59 am   BACKBONE|DICT|INTERRES
   115   59   60 1    
   116   59  125 1    
   117   60   61 1    
   118   60   62 1    
   119   60  126 1    
   120   61  127 1    
   121   61  128 1    
   122   61  129 1    
   123   62   63 2    
   124   62   64 am   BACKBONE|DICT|INTERRES
   125   64   65 1    
   126   64  130 1    
   127   65   66 1    
   128   65   69 1    
   129   65  131 1    
   130   66   67 am   BACKBONE|DICT|INTERRES
   131   66   68 2    
   132   67  132 1    
   133   67  133 1    
   134   69   70 1    
   135   69  134 1    
   136   69  135 1    
   137   70   71 1    
   138   71  136 1    
   139   71  137 1    
@<TRIPOS>SUBSTRUCTURE
     1 UNK         1 GROUP             0       ****    0 ROOT    
