@<TRIPOS>MOLECULE
3R137
137   139    1
SMALL
USER_CHARGES


@<TRIPOS>ATOM
      1 CA         25.5417   -6.6827   -2.1220 C.3       0 UNK        -0.2020 
      2 C          25.5996   -5.3427   -1.4054 C.2       0 UNK         0.4855 
      3 O          24.5596   -4.7271   -1.1682 O.2       0 UNK        -0.5197 
      4 N          26.8130   -4.8898   -1.0667 N.am      1 UNK        -0.4892 
      5 CA         27.1366   -3.6202   -0.4044 C.3       1 UNK         0.0835 
      6 C6         28.6582   -3.4889   -0.1034 C.3       12 UNK        -0.0855 
      7 S7         29.7666   -4.1790   -1.3893 S.3       12 UNK        -0.2931 
      8 C8         31.1997   -3.0615   -1.3140 C.3       12 UNK         0.0378 
      9 C9         31.0283   -1.8526   -2.2212 C.ar      12 UNK        -0.0802 
     10 C10        31.2635   -1.9734   -3.5941 C.ar      12 UNK        -0.0944 
     11 C11        31.1456   -0.8630   -4.4335 C.ar      12 UNK        -0.0787 
     12 C12        30.8254    0.3814   -3.8864 C.ar      12 UNK        -0.0862 
     13 C13        30.5372    0.5076   -2.5230 C.ar      12 UNK        -0.0733 
     14 C14        30.6510   -0.6138   -1.6940 C.ar      12 UNK        -0.0832 
     15 C15        30.0925    1.8444   -1.9340 C.3       12 UNK         0.0240 
     16 S16        28.7860    2.6872   -2.8981 S.3       12 UNK        -0.2522 
     17 C17        27.5343    1.3759   -3.1273 C.3       12 UNK        -0.0967 
     18 CA         27.5244    0.8449   -4.5867 C.3       5 UNK         0.0660 
     19 N          27.3225   -0.6085   -4.6497 N.am      5 UNK        -0.4015 
     20 C          27.4743   -1.3675   -5.7462 C.2       4 UNK         0.4946 
     21 O          27.8012   -0.9211   -6.8447 O.2       4 UNK        -0.5353 
     22 CA         27.1437   -2.8616   -5.6115 C.3       4 UNK         0.0277 
     23 CB         28.3130   -3.6370   -4.9845 C.3       4 UNK        -0.1981 
     24 N          25.9302   -3.0479   -4.8141 N.am      4 UNK        -0.4209 
     25 C          24.6870   -2.9494   -5.3094 C.2       3 UNK         0.4942 
     26 O          24.4383   -2.8378   -6.5095 O.2       3 UNK        -0.5208 
     27 CA         23.5183   -2.9430   -4.3065 C.3       3 UNK         0.0250 
     28 CB         22.9094   -4.3466   -4.1662 C.3       3 UNK        -0.1990 
     29 N          23.8959   -2.4282   -2.9868 N.am      3 UNK        -0.4232 
     30 C          24.1891   -1.1405   -2.7460 C.2       2 UNK         0.4993 
     31 O          24.1180   -0.2569   -3.5992 O.2       2 UNK        -0.5286 
     32 CA         24.7009   -0.7774   -1.3400 C.3       2 UNK         0.0209 
     33 CB         23.5319   -0.3572   -0.4357 C.3       2 UNK        -0.1931 
     34 N          25.4601   -1.8503   -0.6895 N.am      2 UNK        -0.4546 
     35 C          26.5739   -2.4122   -1.1808 C.2       1 UNK         0.5154 
     36 O          27.1022   -2.0519   -2.2332 O.2       1 UNK        -0.5181 
     37 C          26.5829    1.6551   -5.5044 C.2       5 UNK         0.5014 
     38 O          26.9294    2.7730   -5.8860 O.2       5 UNK        -0.5248 
     39 N          25.4510    1.0664   -5.9154 N.am      6 UNK        -0.4434 
     40 CA         24.5709    1.5695   -6.9744 C.3       6 UNK         0.0363 
     41 CB         23.3558    0.6374   -7.1001 C.3       6 UNK        -0.1936 
     42 C          25.2648    1.7396   -8.3443 C.2       6 UNK         0.5081 
     43 O          24.8117    2.5606   -9.1417 O.2       6 UNK        -0.5248 
     44 N          26.3576    0.9991   -8.5889 N.am      7 UNK        -0.4718 
     45 CA         27.2226    1.1418   -9.7649 C.3       7 UNK         0.0273 
     46 CB         27.8066   -0.2357  -10.1222 C.3       7 UNK        -0.1935 
     47 C          28.3476    2.1787   -9.5615 C.2       7 UNK         0.5018 
     48 O          29.1876    2.3292  -10.4511 O.2       7 UNK        -0.5186 
     49 N          28.3663    2.8694   -8.4102 N.am      8 UNK        -0.4240 
     50 CA         29.3608    3.8574   -7.9858 C.3       8 UNK         0.0235 
     51 CB         29.2621    5.1403   -8.8442 C.3       8 UNK        -0.2000 
     52 C          30.7655    3.2322   -7.9215 C.2       8 UNK         0.4941 
     53 O          30.9774    2.3271   -7.1153 O.2       8 UNK        -0.5273 
     54 N          31.6902    3.7133   -8.7612 N.am      9 UNK        -0.4262 
     55 CA         33.0639    3.2191   -8.8571 C.3       9 UNK         0.0264 
     56 CB         33.9495    4.3275   -9.4511 C.3       9 UNK        -0.1955 
     57 C          33.2031    1.9250   -9.6796 C.2       9 UNK         0.5031 
     58 O          34.2527    1.2839   -9.5946 O.2       9 UNK        -0.5390 
     59 N          32.1845    1.5518  -10.4703 N.am      10 UNK        -0.4204 
     60 CA         32.2080    0.3772  -11.3487 C.3       10 UNK         0.0237 
     61 CB         31.2695    0.6136  -12.5469 C.3       10 UNK        -0.1985 
     62 C          31.8847   -0.9161  -10.5769 C.2       10 UNK         0.4970 
     63 O          30.9030   -1.5932  -10.8857 O.2       10 UNK        -0.4914 
     64 N          32.7182   -1.2291   -9.5785 N.am      11 UNK        -0.4285 
     65 CA         32.5911   -2.4097   -8.7093 C.3       11 UNK         0.1007 
     66 C          32.9349   -3.7663   -9.3914 C.2       11 UNK         0.5703 
     67 N          33.5426   -3.7863  -10.5721 N.am      11 UNK        -0.7361 
     68 O          32.6376   -4.8225   -8.8385 O.2       11 UNK        -0.4986 
     69 C69        33.3830   -2.2467   -7.3819 C.3       12 UNK        -0.0947 
     70 S70        33.0131   -0.7066   -6.4759 S.3       12 UNK        -0.2240 
     71 C71        31.3053   -1.0156   -5.9366 C.3       12 UNK         0.0194 
     72 H72        24.6696   -7.2490   -1.7959 H         1 UNK         0.0906 
     73 H73        25.4704   -6.5333   -3.1988 H         1 UNK         0.0906 
     74 H74        26.4274   -7.2846   -1.9191 H         1 UNK         0.0906 
     75 H75        27.6293   -5.4243   -1.3328 H         1 UNK         0.3140 
     76 H76        26.6278   -3.6404    0.5618 H         1 UNK         0.1085 
     77 H77        28.8815   -4.0271    0.8192 H         1 UNK         0.0836 
     78 H78        28.9269   -2.4507    0.1009 H         1 UNK         0.0836 
     79 H79        32.0874   -3.6155   -1.6231 H         1 UNK         0.0731 
     80 H80        31.3817   -2.7560   -0.2824 H         1 UNK         0.0731 
     81 H81        31.5255   -2.9366   -4.0102 H         1 UNK         0.1312 
     82 H82        30.7511    1.2436   -4.5357 H         1 UNK         0.1406 
     83 H83        30.4490   -0.5233   -0.6356 H         1 UNK         0.1631 
     84 H84        30.9586    2.5036   -1.8661 H         1 UNK         0.0717 
     85 H85        29.7268    1.7103   -0.9148 H         1 UNK         0.0717 
     86 H86        27.7527    0.5727   -2.4222 H         1 UNK         0.0934 
     87 H87        26.5557    1.7603   -2.8333 H         1 UNK         0.0934 
     88 H88        28.5118    0.9996   -5.0208 H         1 UNK         0.0739 
     89 H89        27.1272   -1.0781   -3.7675 H         1 UNK         0.3093 
     90 H90        26.9782   -3.2623   -6.6142 H         1 UNK         0.0818 
     91 H91        28.5908   -3.2397   -4.0086 H         1 UNK         0.0819 
     92 H92        28.0702   -4.6920   -4.8588 H         1 UNK         0.0819 
     93 H93        29.1978   -3.5816   -5.6189 H         1 UNK         0.0819 
     94 H94        26.0562   -3.0863   -3.8105 H         1 UNK         0.3041 
     95 H95        22.7475   -2.2841   -4.7129 H         1 UNK         0.0784 
     96 H96        22.5561   -4.7150   -5.1303 H         1 UNK         0.0793 
     97 H97        23.6338   -5.0673   -3.7900 H         1 UNK         0.0793 
     98 H98        22.0559   -4.3437   -3.4880 H         1 UNK         0.0793 
     99 H99        24.0032   -3.1081   -2.2386 H         1 UNK         0.3024 
    100 H100       25.3702    0.0774   -1.4510 H         1 UNK         0.1171 
    101 H101       23.8857   -0.0031    0.5328 H         1 UNK         0.0786 
    102 H102       22.9624    0.4566   -0.8873 H         1 UNK         0.0786 
    103 H103       22.8395   -1.1818   -0.2609 H         1 UNK         0.0786 
    104 H104       25.0546   -2.2392    0.1502 H         1 UNK         0.2977 
    105 H105       25.1809    0.1963   -5.4733 H         1 UNK         0.3127 
    106 H106       24.2181    2.5549   -6.6634 H         1 UNK         0.0770 
    107 H107       23.6497   -0.3652   -7.4128 H         1 UNK         0.0814 
    108 H108       22.6488    1.0153   -7.8398 H         1 UNK         0.0814 
    109 H109       22.8205    0.5507   -6.1541 H         1 UNK         0.0814 
    110 H110       26.6851    0.3466   -7.8803 H         1 UNK         0.2983 
    111 H111       26.6240    1.4819  -10.6126 H         1 UNK         0.0947 
    112 H112       28.3340   -0.2015  -11.0756 H         1 UNK         0.0806 
    113 H113       27.0258   -0.9906  -10.2139 H         1 UNK         0.0806 
    114 H114       28.5209   -0.5794   -9.3730 H         1 UNK         0.0806 
    115 H115       27.6620    2.6579   -7.7101 H         1 UNK         0.3000 
    116 H116       29.1057    4.1284   -6.9601 H         1 UNK         0.0850 
    117 H117       29.9567    5.9048   -8.4932 H         1 UNK         0.0810 
    118 H118       28.2623    5.5702   -8.7814 H         1 UNK         0.0810 
    119 H119       29.4704    4.9567   -9.8987 H         1 UNK         0.0810 
    120 H120       31.4218    4.4475   -9.4008 H         1 UNK         0.3040 
    121 H121       33.4259    2.9996   -7.8500 H         1 UNK         0.0766 
    122 H122       33.9202    5.2298   -8.8400 H         1 UNK         0.0812 
    123 H123       33.6400    4.5945  -10.4623 H         1 UNK         0.0812 
    124 H124       34.9916    4.0088   -9.5034 H         1 UNK         0.0812 
    125 H125       31.3132    2.0716  -10.4377 H         1 UNK         0.3205 
    126 H126       33.2157    0.2607  -11.7536 H         1 UNK         0.0754 
    127 H127       31.3158   -0.2202  -13.2486 H         1 UNK         0.0769 
    128 H128       31.5465    1.5136  -13.0960 H         1 UNK         0.0769 
    129 H129       30.2305    0.7185  -12.2370 H         1 UNK         0.0769 
    130 H130       33.4826   -0.5934   -9.3764 H         1 UNK         0.2981 
    131 H131       31.5343   -2.4869   -8.4494 H         1 UNK         0.0541 
    132 H132       33.7925   -2.9268  -11.0334 H         1 UNK         0.3459 
    133 H133       33.7549   -4.6723  -11.0031 H         1 UNK         0.3459 
    134 H134       33.1903   -3.0865   -6.7114 H         1 UNK         0.0612 
    135 H135       34.4558   -2.2591   -7.5822 H         1 UNK         0.0612 
    136 H136       30.9835   -2.0137   -6.2332 H         1 UNK         0.0624 
    137 H137       30.6414   -0.3231   -6.4567 H         1 UNK         0.0624 
@<TRIPOS>BOND
     1    1    2 1    
     2    1   72 1    
     3    1   73 1    
     4    1   74 1    
     5    2    3 2    
     6    2    4 am   BACKBONE|DICT|INTERRES
     7    4    5 1    
     8    4   75 1    
     9    5    6 1    
    10    5   35 1    
    11    5   76 1    
    12    6    7 1    
    13    6   77 1    
    14    6   78 1    
    15    7    8 1    
    16    8    9 1    
    17    8   79 1    
    18    8   80 1    
    19    9   10 ar   
    20    9   14 ar   
    21   10   11 ar   
    22   10   81 1    
    23   11   12 ar   
    24   11   71 1    
    25   12   13 ar   
    26   12   82 1    
    27   13   14 ar   
    28   13   15 1    
    29   14   83 1    
    30   15   16 1    
    31   15   84 1    
    32   15   85 1    
    33   16   17 1    
    34   17   18 1    
    35   17   86 1    
    36   17   87 1    
    37   18   19 1    
    38   18   37 1    
    39   18   88 1    
    40   19   20 am   BACKBONE|DICT|INTERRES
    41   19   89 1    
    42   20   21 2    
    43   20   22 1    
    44   22   23 1    
    45   22   24 1    
    46   22   90 1    
    47   23   91 1    
    48   23   92 1    
    49   23   93 1    
    50   24   25 am   BACKBONE|DICT|INTERRES
    51   24   94 1    
    52   25   26 2    
    53   25   27 1    
    54   27   28 1    
    55   27   29 1    
    56   27   95 1    
    57   28   96 1    
    58   28   97 1    
    59   28   98 1    
    60   29   30 am   BACKBONE|DICT|INTERRES
    61   29   99 1    
    62   30   31 2    
    63   30   32 1    
    64   32   33 1    
    65   32   34 1    
    66   32  100 1    
    67   33  101 1    
    68   33  102 1    
    69   33  103 1    
    70   34   35 am   BACKBONE|DICT|INTERRES
    71   34  104 1    
    72   35   36 2    
    73   37   38 2    
    74   37   39 am   BACKBONE|DICT|INTERRES
    75   39   40 1    
    76   39  105 1    
    77   40   41 1    
    78   40   42 1    
    79   40  106 1    
    80   41  107 1    
    81   41  108 1    
    82   41  109 1    
    83   42   43 2    
    84   42   44 am   BACKBONE|DICT|INTERRES
    85   44   45 1    
    86   44  110 1    
    87   45   46 1    
    88   45   47 1    
    89   45  111 1    
    90   46  112 1    
    91   46  113 1    
    92   46  114 1    
    93   47   48 2    
    94   47   49 am   BACKBONE|DICT|INTERRES
    95   49   50 1    
    96   49  115 1    
    97   50   51 1    
    98   50   52 1    
    99   50  116 1    
   100   51  117 1    
   101   51  118 1    
   102   51  119 1    
   103   52   53 2    
   104   52   54 am   BACKBONE|DICT|INTERRES
   105   54   55 1    
   106   54  120 1    
   107   55   56 1    
   108   55   57 1    
   109   55  121 1    
   110   56  122 1    
   111   56  123 1    
   112   56  124 1    
   113   57   58 2    
   114   57   59 am   BACKBONE|DICT|INTERRES
   115   59   60 1    
   116   59  125 1    
   117   60   61 1    
   118   60   62 1    
   119   60  126 1    
   120   61  127 1    
   121   61  128 1    
   122   61  129 1    
   123   62   63 2    
   124   62   64 am   BACKBONE|DICT|INTERRES
   125   64   65 1    
   126   64  130 1    
   127   65   66 1    
   128   65   69 1    
   129   65  131 1    
   130   66   67 am   BACKBONE|DICT|INTERRES
   131   66   68 2    
   132   67  132 1    
   133   67  133 1    
   134   69   70 1    
   135   69  134 1    
   136   69  135 1    
   137   70   71 1    
   138   71  136 1    
   139   71  137 1    
@<TRIPOS>SUBSTRUCTURE
     1 UNK         1 GROUP             0       ****    0 ROOT    
