@<TRIPOS>MOLECULE
3R137
137   139    1
SMALL
USER_CHARGES


@<TRIPOS>ATOM
      1 CA         22.1494   -6.0693   -2.0633 C.3       0 UNK        -0.2020 
      2 C          23.1762   -5.4843   -1.1051 C.2       0 UNK         0.4855 
      3 O          22.8457   -5.1974    0.0462 O.2       0 UNK        -0.5197 
      4 N          24.4210   -5.3125   -1.5673 N.am      1 UNK        -0.4892 
      5 CA         25.5076   -4.6827   -0.8125 C.3       1 UNK         0.0835 
      6 C6         26.8822   -4.9990   -1.4546 C.3       12 UNK        -0.0855 
      7 S7         28.2805   -4.5823   -0.3576 S.3       12 UNK        -0.2931 
      8 C8         29.6560   -5.4265   -1.1918 C.3       12 UNK         0.0378 
      9 C9         30.1139   -4.6793   -2.4359 C.ar      12 UNK        -0.0802 
     10 C10        31.0081   -3.6108   -2.3204 C.ar      12 UNK        -0.0944 
     11 C11        31.5013   -2.9587   -3.4552 C.ar      12 UNK        -0.0787 
     12 C12        31.0805   -3.3953   -4.7189 C.ar      12 UNK        -0.0862 
     13 C13        30.1634   -4.4426   -4.8493 C.ar      12 UNK        -0.0733 
     14 C14        29.6824   -5.0812   -3.7029 C.ar      12 UNK        -0.0832 
     15 C15        29.7232   -4.9144   -6.2290 C.3       12 UNK         0.0240 
     16 S16        28.2180   -4.0627   -6.7988 S.3       12 UNK        -0.2522 
     17 C17        28.9043   -2.4712   -7.3725 C.3       12 UNK        -0.0967 
     18 CA         27.8635   -1.3318   -7.4528 C.3       5 UNK         0.0660 
     19 N          27.0557   -1.2306   -6.2328 N.am      5 UNK        -0.4015 
     20 C          25.9847   -0.4451   -6.0565 C.2       4 UNK         0.4946 
     21 O          25.4958    0.2481   -6.9490 O.2       4 UNK        -0.5353 
     22 CA         25.4081   -0.3536   -4.6320 C.3       4 UNK         0.0277 
     23 CB         24.1472   -1.2239   -4.5145 C.3       4 UNK        -0.1981 
     24 N          26.3499   -0.6932   -3.5520 N.am      4 UNK        -0.4209 
     25 C          27.5421   -0.1043   -3.3414 C.2       3 UNK         0.4942 
     26 O          28.0055    0.7576   -4.0899 O.2       3 UNK        -0.5208 
     27 CA         28.3714   -0.5755   -2.1267 C.3       3 UNK         0.0250 
     28 CB         29.4165    0.4663   -1.6755 C.3       3 UNK        -0.1990 
     29 N          27.5536   -1.0226   -0.9939 N.am      3 UNK        -0.4232 
     30 C          26.6169   -0.3239   -0.3299 C.2       2 UNK         0.4993 
     31 O          26.4026    0.8766   -0.5049 O.2       2 UNK        -0.5286 
     32 CA         25.7509   -1.1142    0.6782 C.3       2 UNK         0.0209 
     33 CB         24.3224   -0.5405    0.7969 C.3       2 UNK        -0.1931 
     34 N          25.7000   -2.5618    0.4093 N.am      2 UNK        -0.4546 
     35 C          25.2871   -3.1599   -0.7199 C.2       1 UNK         0.5154 
     36 O          24.8480   -2.5515   -1.6984 O.2       1 UNK        -0.5181 
     37 C          28.5506   -0.0011   -7.8500 C.2       5 UNK         0.5014 
     38 O          29.0402    0.1092   -8.9755 O.2       5 UNK        -0.5248 
     39 N          28.5492    1.0099   -6.9652 N.am      6 UNK        -0.4434 
     40 CA         28.8606    2.4057   -7.2848 C.3       6 UNK         0.0363 
     41 CB         28.7932    3.2520   -6.0053 C.3       6 UNK        -0.1936 
     42 C          27.9496    3.0072   -8.3724 C.2       6 UNK         0.5081 
     43 O          28.4082    3.8744   -9.1140 O.2       6 UNK        -0.5248 
     44 N          26.7137    2.5003   -8.5146 N.am      7 UNK        -0.4718 
     45 CA         25.8058    2.8400   -9.6184 C.3       7 UNK         0.0273 
     46 CB         24.4051    2.2838   -9.3192 C.3       7 UNK        -0.1935 
     47 C          26.3008    2.3411  -10.9911 C.2       7 UNK         0.5018 
     48 O          25.9373    2.9276  -12.0106 O.2       7 UNK        -0.5186 
     49 N          27.1395    1.2953  -10.9903 N.am      8 UNK        -0.4240 
     50 CA         27.8560    0.7740  -12.1566 C.3       8 UNK         0.0235 
     51 CB         27.8262   -0.7647  -12.1047 C.3       8 UNK        -0.2000 
     52 C          29.3054    1.2996  -12.2210 C.2       8 UNK         0.4941 
     53 O          30.0757    0.8234  -13.0553 O.2       8 UNK        -0.5273 
     54 N          29.6578    2.2508  -11.3398 N.am      9 UNK        -0.4262 
     55 CA         30.9664    2.8913  -11.1689 C.3       9 UNK         0.0264 
     56 CB         31.3629    3.6853  -12.4324 C.3       9 UNK        -0.1955 
     57 C          32.0867    1.9475  -10.6860 C.2       9 UNK         0.5031 
     58 O          33.2599    2.2946  -10.8336 O.2       9 UNK        -0.5390 
     59 N          31.7359    0.7947  -10.0943 N.am      10 UNK        -0.4204 
     60 CA         32.7087   -0.1745   -9.5754 C.3       10 UNK         0.0237 
     61 CB         32.0428   -1.5493   -9.4231 C.3       10 UNK        -0.1985 
     62 C          33.3262    0.2721   -8.2398 C.2       10 UNK         0.4970 
     63 O          34.5270    0.0890   -8.0384 O.2       10 UNK        -0.4914 
     64 N          32.4910    0.8521   -7.3700 N.am      11 UNK        -0.4285 
     65 CA         32.8488    1.3746   -6.0405 C.3       11 UNK         0.1007 
     66 C          32.4840    2.8797   -5.8818 C.2       11 UNK         0.5703 
     67 N          32.3084    3.6298   -6.9641 N.am      11 UNK        -0.7361 
     68 O          32.3772    3.3877   -4.7687 O.2       11 UNK        -0.4986 
     69 C69        32.2783    0.4743   -4.9061 C.3       12 UNK        -0.0947 
     70 S70        33.2065   -1.0892   -4.7747 S.3       12 UNK        -0.2240 
     71 C71        32.5079   -1.8223   -3.2530 C.3       12 UNK         0.0194 
     72 H72        22.5761   -6.2684   -3.0473 H         1 UNK         0.0906 
     73 H73        21.7569   -7.0066   -1.6667 H         1 UNK         0.0906 
     74 H74        21.3163   -5.3762   -2.1888 H         1 UNK         0.0906 
     75 H75        24.6249   -5.5308   -2.5322 H         1 UNK         0.3140 
     76 H76        25.4907   -5.0997    0.1975 H         1 UNK         0.1085 
     77 H77        26.9431   -6.0655   -1.6777 H         1 UNK         0.0836 
     78 H78        27.0034   -4.4818   -2.4091 H         1 UNK         0.0836 
     79 H79        29.3692   -6.4504   -1.4366 H         1 UNK         0.0731 
     80 H80        30.4896   -5.5085   -0.4926 H         1 UNK         0.0731 
     81 H81        31.3385   -3.2989   -1.3386 H         1 UNK         0.1312 
     82 H82        31.4717   -2.9350   -5.6131 H         1 UNK         0.1406 
     83 H83        28.9887   -5.9055   -3.7994 H         1 UNK         0.1631 
     84 H84        29.5271   -5.9874   -6.2046 H         1 UNK         0.0717 
     85 H85        30.5239   -4.7725   -6.9567 H         1 UNK         0.0717 
     86 H86        29.7208   -2.1726   -6.7178 H         1 UNK         0.0934 
     87 H87        29.3403   -2.6466   -8.3573 H         1 UNK         0.0934 
     88 H88        27.1722   -1.5712   -8.2634 H         1 UNK         0.0739 
     89 H89        27.3757   -1.7791   -5.4486 H         1 UNK         0.3093 
     90 H90        25.1157    0.6874   -4.4809 H         1 UNK         0.0818 
     91 H91        23.4403   -1.0043   -5.3160 H         1 UNK         0.0819 
     92 H92        24.3843   -2.2872   -4.5680 H         1 UNK         0.0819 
     93 H93        23.6285   -1.0427   -3.5729 H         1 UNK         0.0819 
     94 H94        26.0144   -1.3720   -2.8749 H         1 UNK         0.3041 
     95 H95        28.9167   -1.4562   -2.4692 H         1 UNK         0.0784 
     96 H96        30.0155    0.0928   -0.8451 H         1 UNK         0.0793 
     97 H97        30.1050    0.7082   -2.4862 H         1 UNK         0.0793 
     98 H98        28.9470    1.3986   -1.3605 H         1 UNK         0.0793 
     99 H99        27.6526   -1.9997   -0.7517 H         1 UNK         0.3024 
    100 H100       26.2386   -0.9944    1.6471 H         1 UNK         0.1171 
    101 H101       23.7270   -1.1035    1.5156 H         1 UNK         0.0786 
    102 H102       24.3416    0.4957    1.1369 H         1 UNK         0.0786 
    103 H103       23.7988   -0.5584   -0.1595 H         1 UNK         0.0786 
    104 H104       26.0869   -3.1480    1.1374 H         1 UNK         0.2977 
    105 H105       28.1950    0.8414   -6.0261 H         1 UNK         0.3127 
    106 H106       29.8806    2.4376   -7.6681 H         1 UNK         0.0770 
    107 H107       27.7889    3.2587   -5.5797 H         1 UNK         0.0814 
    108 H108       29.0729    4.2871   -6.2057 H         1 UNK         0.0814 
    109 H109       29.4738    2.8752   -5.2418 H         1 UNK         0.0814 
    110 H110       26.3933    1.7791   -7.8729 H         1 UNK         0.2983 
    111 H111       25.7369    3.9288   -9.6732 H         1 UNK         0.0947 
    112 H112       23.6948    2.5777  -10.0931 H         1 UNK         0.0806 
    113 H113       24.0231    2.6577   -8.3692 H         1 UNK         0.0806 
    114 H114       24.4052    1.1940   -9.2741 H         1 UNK         0.0806 
    115 H115       27.4133    0.8969  -10.1003 H         1 UNK         0.3000 
    116 H116       27.3573    1.0933  -13.0741 H         1 UNK         0.0850 
    117 H117       28.2855   -1.1960  -12.9951 H         1 UNK         0.0810 
    118 H118       26.8039   -1.1401  -12.0569 H         1 UNK         0.0810 
    119 H119       28.3668   -1.1526  -11.2408 H         1 UNK         0.0810 
    120 H120       28.9457    2.5881  -10.7025 H         1 UNK         0.3040 
    121 H121       30.8338    3.6160  -10.3646 H         1 UNK         0.0766 
    122 H122       31.5939    3.0263  -13.2697 H         1 UNK         0.0812 
    123 H123       32.2466    4.2981  -12.2502 H         1 UNK         0.0812 
    124 H124       30.5647    4.3587  -12.7445 H         1 UNK         0.0812 
    125 H125       30.7510    0.5733   -9.9789 H         1 UNK         0.3205 
    126 H126       33.5169   -0.2742  -10.3035 H         1 UNK         0.0754 
    127 H127       32.7778   -2.3099   -9.1561 H         1 UNK         0.0769 
    128 H128       31.5624   -1.8685  -10.3483 H         1 UNK         0.0769 
    129 H129       31.2915   -1.5370   -8.6366 H         1 UNK         0.0769 
    130 H130       31.5247    0.9631   -7.6352 H         1 UNK         0.2981 
    131 H131       33.9354    1.3755   -5.9393 H         1 UNK         0.0541 
    132 H132       32.4803    3.2550   -7.8820 H         1 UNK         0.3459 
    133 H133       32.0884    4.6065   -6.8497 H         1 UNK         0.3459 
    134 H134       31.2195    0.2614   -5.0658 H         1 UNK         0.0612 
    135 H135       32.3523    0.9695   -3.9366 H         1 UNK         0.0612 
    136 H136       32.0469   -1.0410   -2.6478 H         1 UNK         0.0624 
    137 H137       33.3426   -2.2081   -2.6661 H         1 UNK         0.0624 
@<TRIPOS>BOND
     1    1    2 1    
     2    1   72 1    
     3    1   73 1    
     4    1   74 1    
     5    2    3 2    
     6    2    4 am   BACKBONE|DICT|INTERRES
     7    4    5 1    
     8    4   75 1    
     9    5    6 1    
    10    5   35 1    
    11    5   76 1    
    12    6    7 1    
    13    6   77 1    
    14    6   78 1    
    15    7    8 1    
    16    8    9 1    
    17    8   79 1    
    18    8   80 1    
    19    9   10 ar   
    20    9   14 ar   
    21   10   11 ar   
    22   10   81 1    
    23   11   12 ar   
    24   11   71 1    
    25   12   13 ar   
    26   12   82 1    
    27   13   14 ar   
    28   13   15 1    
    29   14   83 1    
    30   15   16 1    
    31   15   84 1    
    32   15   85 1    
    33   16   17 1    
    34   17   18 1    
    35   17   86 1    
    36   17   87 1    
    37   18   19 1    
    38   18   37 1    
    39   18   88 1    
    40   19   20 am   BACKBONE|DICT|INTERRES
    41   19   89 1    
    42   20   21 2    
    43   20   22 1    
    44   22   23 1    
    45   22   24 1    
    46   22   90 1    
    47   23   91 1    
    48   23   92 1    
    49   23   93 1    
    50   24   25 am   BACKBONE|DICT|INTERRES
    51   24   94 1    
    52   25   26 2    
    53   25   27 1    
    54   27   28 1    
    55   27   29 1    
    56   27   95 1    
    57   28   96 1    
    58   28   97 1    
    59   28   98 1    
    60   29   30 am   BACKBONE|DICT|INTERRES
    61   29   99 1    
    62   30   31 2    
    63   30   32 1    
    64   32   33 1    
    65   32   34 1    
    66   32  100 1    
    67   33  101 1    
    68   33  102 1    
    69   33  103 1    
    70   34   35 am   BACKBONE|DICT|INTERRES
    71   34  104 1    
    72   35   36 2    
    73   37   38 2    
    74   37   39 am   BACKBONE|DICT|INTERRES
    75   39   40 1    
    76   39  105 1    
    77   40   41 1    
    78   40   42 1    
    79   40  106 1    
    80   41  107 1    
    81   41  108 1    
    82   41  109 1    
    83   42   43 2    
    84   42   44 am   BACKBONE|DICT|INTERRES
    85   44   45 1    
    86   44  110 1    
    87   45   46 1    
    88   45   47 1    
    89   45  111 1    
    90   46  112 1    
    91   46  113 1    
    92   46  114 1    
    93   47   48 2    
    94   47   49 am   BACKBONE|DICT|INTERRES
    95   49   50 1    
    96   49  115 1    
    97   50   51 1    
    98   50   52 1    
    99   50  116 1    
   100   51  117 1    
   101   51  118 1    
   102   51  119 1    
   103   52   53 2    
   104   52   54 am   BACKBONE|DICT|INTERRES
   105   54   55 1    
   106   54  120 1    
   107   55   56 1    
   108   55   57 1    
   109   55  121 1    
   110   56  122 1    
   111   56  123 1    
   112   56  124 1    
   113   57   58 2    
   114   57   59 am   BACKBONE|DICT|INTERRES
   115   59   60 1    
   116   59  125 1    
   117   60   61 1    
   118   60   62 1    
   119   60  126 1    
   120   61  127 1    
   121   61  128 1    
   122   61  129 1    
   123   62   63 2    
   124   62   64 am   BACKBONE|DICT|INTERRES
   125   64   65 1    
   126   64  130 1    
   127   65   66 1    
   128   65   69 1    
   129   65  131 1    
   130   66   67 am   BACKBONE|DICT|INTERRES
   131   66   68 2    
   132   67  132 1    
   133   67  133 1    
   134   69   70 1    
   135   69  134 1    
   136   69  135 1    
   137   70   71 1    
   138   71  136 1    
   139   71  137 1    
@<TRIPOS>SUBSTRUCTURE
     1 UNK         1 GROUP             0       ****    0 ROOT    
