@<TRIPOS>MOLECULE
3R137
137   139    1
SMALL
USER_CHARGES


@<TRIPOS>ATOM
      1 CA         28.3566   -0.9185    3.3693 C.3       0 UNK        -0.2020 
      2 C          28.7181   -0.2716    2.0409 C.2       0 UNK         0.4855 
      3 O          28.9471    0.9369    1.9901 O.2       0 UNK        -0.5197 
      4 N          28.7705   -1.0661    0.9639 N.am      1 UNK        -0.4892 
      5 CA         29.0769   -0.6155   -0.4010 C.3       1 UNK         0.0835 
      6 C6         29.5375   -1.7928   -1.2954 C.3       12 UNK        -0.0855 
      7 S7         28.3223   -3.1541   -1.4148 S.3       12 UNK        -0.2931 
      8 C8         29.3880   -4.5342   -1.9395 C.3       12 UNK         0.0378 
      9 C9         29.6817   -4.4800   -3.4315 C.ar      12 UNK        -0.0802 
     10 C10        30.8034   -3.7981   -3.9131 C.ar      12 UNK        -0.0944 
     11 C11        31.0640   -3.7368   -5.2865 C.ar      12 UNK        -0.0787 
     12 C12        30.2006   -4.3830   -6.1799 C.ar      12 UNK        -0.0862 
     13 C13        29.0930   -5.0956   -5.7063 C.ar      12 UNK        -0.0733 
     14 C14        28.8343   -5.1298   -4.3330 C.ar      12 UNK        -0.0832 
     15 C15        28.2086   -5.8890   -6.6586 C.3       12 UNK         0.0240 
     16 S16        26.5409   -5.1715   -6.8226 S.3       12 UNK        -0.2522 
     17 C17        26.5424   -4.5239   -8.5340 C.3       12 UNK        -0.0967 
     18 CA         26.3013   -2.9989   -8.6354 C.3       5 UNK         0.0660 
     19 N          25.0792   -2.5773   -7.9477 N.am      5 UNK        -0.4015 
     20 C          24.5014   -1.3766   -8.0878 C.2       4 UNK         0.4946 
     21 O          24.8953   -0.5140   -8.8727 O.2       4 UNK        -0.5353 
     22 CA         23.3189   -1.0690   -7.1526 C.3       4 UNK         0.0277 
     23 CB         22.0048   -1.6003   -7.7466 C.3       4 UNK        -0.1981 
     24 N          23.5035   -1.6012   -5.7960 N.am      4 UNK        -0.4209 
     25 C          24.4923   -1.2287   -4.9713 C.2       3 UNK         0.4942 
     26 O          25.3518   -0.3997   -5.2756 O.2       3 UNK        -0.5208 
     27 CA         24.5706   -1.9560   -3.6171 C.3       3 UNK         0.0250 
     28 CB         25.3608   -3.2674   -3.7631 C.3       3 UNK        -0.1990 
     29 N          25.1980   -1.1427   -2.5718 N.am      3 UNK        -0.4232 
     30 C          24.6915   -0.0048   -2.0748 C.2       2 UNK         0.4993 
     31 O          23.6094    0.4669   -2.4296 O.2       2 UNK        -0.5286 
     32 CA         25.4904    0.7189   -0.9736 C.3       2 UNK         0.0209 
     33 CB         24.6163    0.9606    0.2707 C.3       2 UNK        -0.1931 
     34 N          26.6959   -0.0021   -0.5539 N.am      2 UNK        -0.4546 
     35 C          27.9266    0.1900   -1.0487 C.2       1 UNK         0.5154 
     36 O          28.1762    0.9730   -1.9653 O.2       1 UNK        -0.5181 
     37 C          27.5349   -2.1895   -8.1913 C.2       5 UNK         0.5014 
     38 O          28.3779   -1.8789   -9.0318 O.2       5 UNK        -0.5248 
     39 N          27.6032   -1.8281   -6.9020 N.am      6 UNK        -0.4434 
     40 CA         28.6609   -0.9895   -6.3420 C.3       6 UNK         0.0363 
     41 CB         28.6115   -1.0194   -4.8091 C.3       6 UNK        -0.1936 
     42 C          28.5765    0.4510   -6.8556 C.2       6 UNK         0.5081 
     43 O          29.6009    1.0190   -7.2318 O.2       6 UNK        -0.5248 
     44 N          27.3526    0.9945   -6.9091 N.am      7 UNK        -0.4718 
     45 CA         27.0473    2.3035   -7.4881 C.3       7 UNK         0.0273 
     46 CB         25.5764    2.6559   -7.2163 C.3       7 UNK        -0.1935 
     47 C          27.3651    2.3763   -8.9919 C.2       7 UNK         0.5018 
     48 O          27.9048    3.3874   -9.4416 O.2       7 UNK        -0.5186 
     49 N          27.0567    1.2999   -9.7310 N.am      8 UNK        -0.4240 
     50 CA         27.3926    1.1428  -11.1481 C.3       8 UNK         0.0235 
     51 CB         26.6454   -0.0675  -11.7307 C.3       8 UNK        -0.2000 
     52 C          28.9068    1.0206  -11.3927 C.2       8 UNK         0.4941 
     53 O          29.4198    1.6643  -12.3090 O.2       8 UNK        -0.5273 
     54 N          29.5945    0.2087  -10.5755 N.am      9 UNK        -0.4262 
     55 CA         31.0466    0.0126  -10.6298 C.3       9 UNK         0.0264 
     56 CB         31.4324   -1.2062   -9.7733 C.3       9 UNK        -0.1955 
     57 C          31.8499    1.2439  -10.1780 C.2       9 UNK         0.5031 
     58 O          32.9564    1.4501  -10.6786 O.2       9 UNK        -0.5390 
     59 N          31.2943    2.0082   -9.2256 N.am      10 UNK        -0.4204 
     60 CA         31.9094    3.1255   -8.5001 C.3       10 UNK         0.0237 
     61 CB         32.2249    4.3059   -9.4436 C.3       10 UNK        -0.1985 
     62 C          33.1175    2.6688   -7.6576 C.2       10 UNK         0.4970 
     63 O          34.1183    3.3838   -7.5724 O.2       10 UNK        -0.4914 
     64 N          33.0050    1.4709   -7.0689 N.am      11 UNK        -0.4285 
     65 CA         34.0260    0.8482   -6.2178 C.3       11 UNK         0.1007 
     66 C          34.1568    1.5144   -4.8180 C.2       11 UNK         0.5703 
     67 N          35.2590    1.2716   -4.1208 N.am      11 UNK        -0.7361 
     68 O          33.2741    2.2324   -4.3502 O.2       11 UNK        -0.4986 
     69 C69        33.8367   -0.6915   -6.1425 C.3       12 UNK        -0.0947 
     70 S70        32.2222   -1.2175   -5.4781 S.3       12 UNK        -0.2240 
     71 C71        32.3010   -3.0071   -5.7961 C.3       12 UNK         0.0194 
     72 H72        27.4511   -0.4661    3.7727 H         1 UNK         0.0906 
     73 H73        28.1845   -1.9900    3.2686 H         1 UNK         0.0906 
     74 H74        29.1611   -0.7710    4.0894 H         1 UNK         0.0906 
     75 H75        28.5778   -2.0546    1.0558 H         1 UNK         0.3140 
     76 H76        29.9175    0.0791   -0.3309 H         1 UNK         0.1085 
     77 H77        29.7875   -1.4429   -2.2964 H         1 UNK         0.0836 
     78 H78        30.4681   -2.1944   -0.8916 H         1 UNK         0.0836 
     79 H79        28.8860   -5.4721   -1.6974 H         1 UNK         0.0731 
     80 H80        30.3156   -4.5345   -1.3651 H         1 UNK         0.0731 
     81 H81        31.4705   -3.3032   -3.2207 H         1 UNK         0.1312 
     82 H82        30.4045   -4.3526   -7.2415 H         1 UNK         0.1406 
     83 H83        27.9742   -5.6732   -3.9654 H         1 UNK         0.1631 
     84 H84        28.1043   -6.9038   -6.2720 H         1 UNK         0.0717 
     85 H85        28.6876   -5.9965   -7.6321 H         1 UNK         0.0717 
     86 H86        27.4637   -4.7949   -9.0525 H         1 UNK         0.0934 
     87 H87        25.7514   -5.0450   -9.0756 H         1 UNK         0.0934 
     88 H88        26.1557   -2.7727   -9.6939 H         1 UNK         0.0739 
     89 H89        24.6950   -3.2318   -7.2823 H         1 UNK         0.3093 
     90 H90        23.2418    0.0176   -7.0725 H         1 UNK         0.0818 
     91 H91        21.1476   -1.3052   -7.1411 H         1 UNK         0.0819 
     92 H92        21.8422   -1.2019   -8.7492 H         1 UNK         0.0819 
     93 H93        22.0035   -2.6882   -7.8244 H         1 UNK         0.0819 
     94 H94        22.8347   -2.2896   -5.4806 H         1 UNK         0.3041 
     95 H95        23.5554   -2.1909   -3.2906 H         1 UNK         0.0784 
     96 H96        26.3858   -3.0905   -4.0915 H         1 UNK         0.0793 
     97 H97        25.4054   -3.8116   -2.8195 H         1 UNK         0.0793 
     98 H98        24.8939   -3.9307   -4.4919 H         1 UNK         0.0793 
     99 H99        26.0995   -1.4486   -2.2359 H         1 UNK         0.3024 
    100 H100       25.7739    1.6919   -1.3818 H         1 UNK         0.1171 
    101 H101       23.7357    1.5556    0.0246 H         1 UNK         0.0786 
    102 H102       25.1646    1.5046    1.0402 H         1 UNK         0.0786 
    103 H103       24.2660    0.0241    0.7061 H         1 UNK         0.0786 
    104 H104       26.5890   -0.6752    0.1916 H         1 UNK         0.2977 
    105 H105       26.8502   -2.0841   -6.2818 H         1 UNK         0.3127 
    106 H106       29.6142   -1.4084   -6.6657 H         1 UNK         0.0770 
    107 H107       27.7196   -0.5405   -4.4083 H         1 UNK         0.0814 
    108 H108       29.4678   -0.4878   -4.3940 H         1 UNK         0.0814 
    109 H109       28.6413   -2.0392   -4.4315 H         1 UNK         0.0814 
    110 H110       26.5757    0.4672   -6.5178 H         1 UNK         0.2983 
    111 H111       27.6752    3.0405   -6.9829 H         1 UNK         0.0947 
    112 H112       25.3368    3.6493   -7.5977 H         1 UNK         0.0806 
    113 H113       25.3600    2.6561   -6.1477 H         1 UNK         0.0806 
    114 H114       24.8963    1.9501   -7.6936 H         1 UNK         0.0806 
    115 H115       26.5377    0.5437   -9.2937 H         1 UNK         0.3000 
    116 H116       27.0449    2.0365  -11.6709 H         1 UNK         0.0850 
    117 H117       26.8510   -0.1766  -12.7963 H         1 UNK         0.0810 
    118 H118       25.5665    0.0406  -11.6174 H         1 UNK         0.0810 
    119 H119       26.9404   -0.9975  -11.2448 H         1 UNK         0.0810 
    120 H120       29.0869   -0.3524   -9.8943 H         1 UNK         0.3040 
    121 H121       31.3197   -0.1980  -11.6659 H         1 UNK         0.0766 
    122 H122       32.5089   -1.3807   -9.8002 H         1 UNK         0.0812 
    123 H123       30.9482   -2.1135  -10.1346 H         1 UNK         0.0812 
    124 H124       31.1499   -1.0714   -8.7282 H         1 UNK         0.0812 
    125 H125       30.4207    1.6805   -8.8189 H         1 UNK         0.3205 
    126 H126       31.1579    3.4679   -7.7871 H         1 UNK         0.0754 
    127 H127       32.5461    5.1815   -8.8783 H         1 UNK         0.0769 
    128 H128       31.3458    4.5964  -10.0191 H         1 UNK         0.0769 
    129 H129       33.0222    4.0640  -10.1469 H         1 UNK         0.0769 
    130 H130       32.1240    0.9797   -7.1312 H         1 UNK         0.2981 
    131 H131       34.9828    1.0184   -6.7156 H         1 UNK         0.0541 
    132 H132       35.3617    1.6882   -3.2087 H         1 UNK         0.3459 
    133 H133       35.9904    0.6826   -4.4872 H         1 UNK         0.3459 
    134 H134       34.6256   -1.1489   -5.5431 H         1 UNK         0.0612 
    135 H135       33.9430   -1.1136   -7.1432 H         1 UNK         0.0612 
    136 H136       33.1853   -3.4196   -5.3083 H         1 UNK         0.0624 
    137 H137       32.4304   -3.1696   -6.8672 H         1 UNK         0.0624 
@<TRIPOS>BOND
     1    1    2 1    
     2    1   72 1    
     3    1   73 1    
     4    1   74 1    
     5    2    3 2    
     6    2    4 am   BACKBONE|DICT|INTERRES
     7    4    5 1    
     8    4   75 1    
     9    5    6 1    
    10    5   35 1    
    11    5   76 1    
    12    6    7 1    
    13    6   77 1    
    14    6   78 1    
    15    7    8 1    
    16    8    9 1    
    17    8   79 1    
    18    8   80 1    
    19    9   10 ar   
    20    9   14 ar   
    21   10   11 ar   
    22   10   81 1    
    23   11   12 ar   
    24   11   71 1    
    25   12   13 ar   
    26   12   82 1    
    27   13   14 ar   
    28   13   15 1    
    29   14   83 1    
    30   15   16 1    
    31   15   84 1    
    32   15   85 1    
    33   16   17 1    
    34   17   18 1    
    35   17   86 1    
    36   17   87 1    
    37   18   19 1    
    38   18   37 1    
    39   18   88 1    
    40   19   20 am   BACKBONE|DICT|INTERRES
    41   19   89 1    
    42   20   21 2    
    43   20   22 1    
    44   22   23 1    
    45   22   24 1    
    46   22   90 1    
    47   23   91 1    
    48   23   92 1    
    49   23   93 1    
    50   24   25 am   BACKBONE|DICT|INTERRES
    51   24   94 1    
    52   25   26 2    
    53   25   27 1    
    54   27   28 1    
    55   27   29 1    
    56   27   95 1    
    57   28   96 1    
    58   28   97 1    
    59   28   98 1    
    60   29   30 am   BACKBONE|DICT|INTERRES
    61   29   99 1    
    62   30   31 2    
    63   30   32 1    
    64   32   33 1    
    65   32   34 1    
    66   32  100 1    
    67   33  101 1    
    68   33  102 1    
    69   33  103 1    
    70   34   35 am   BACKBONE|DICT|INTERRES
    71   34  104 1    
    72   35   36 2    
    73   37   38 2    
    74   37   39 am   BACKBONE|DICT|INTERRES
    75   39   40 1    
    76   39  105 1    
    77   40   41 1    
    78   40   42 1    
    79   40  106 1    
    80   41  107 1    
    81   41  108 1    
    82   41  109 1    
    83   42   43 2    
    84   42   44 am   BACKBONE|DICT|INTERRES
    85   44   45 1    
    86   44  110 1    
    87   45   46 1    
    88   45   47 1    
    89   45  111 1    
    90   46  112 1    
    91   46  113 1    
    92   46  114 1    
    93   47   48 2    
    94   47   49 am   BACKBONE|DICT|INTERRES
    95   49   50 1    
    96   49  115 1    
    97   50   51 1    
    98   50   52 1    
    99   50  116 1    
   100   51  117 1    
   101   51  118 1    
   102   51  119 1    
   103   52   53 2    
   104   52   54 am   BACKBONE|DICT|INTERRES
   105   54   55 1    
   106   54  120 1    
   107   55   56 1    
   108   55   57 1    
   109   55  121 1    
   110   56  122 1    
   111   56  123 1    
   112   56  124 1    
   113   57   58 2    
   114   57   59 am   BACKBONE|DICT|INTERRES
   115   59   60 1    
   116   59  125 1    
   117   60   61 1    
   118   60   62 1    
   119   60  126 1    
   120   61  127 1    
   121   61  128 1    
   122   61  129 1    
   123   62   63 2    
   124   62   64 am   BACKBONE|DICT|INTERRES
   125   64   65 1    
   126   64  130 1    
   127   65   66 1    
   128   65   69 1    
   129   65  131 1    
   130   66   67 am   BACKBONE|DICT|INTERRES
   131   66   68 2    
   132   67  132 1    
   133   67  133 1    
   134   69   70 1    
   135   69  134 1    
   136   69  135 1    
   137   70   71 1    
   138   71  136 1    
   139   71  137 1    
@<TRIPOS>SUBSTRUCTURE
     1 UNK         1 GROUP             0       ****    0 ROOT    
