@<TRIPOS>MOLECULE
3R137
137   139    1
SMALL
USER_CHARGES


@<TRIPOS>ATOM
      1 CA         25.3147    1.7707   -2.3997 C.3       0 UNK        -0.2020 
      2 C          25.8875    0.4346   -2.8415 C.2       0 UNK         0.4855 
      3 O          25.8667    0.1306   -4.0351 O.2       0 UNK        -0.5197 
      4 N          26.4296   -0.3518   -1.9004 N.am      1 UNK        -0.4892 
      5 CA         26.9578   -1.7064   -2.1156 C.3       1 UNK         0.0835 
      6 C6         27.7399   -2.2353   -0.8838 C.3       12 UNK        -0.0855 
      7 S7         29.1411   -1.1567   -0.4271 S.3       12 UNK        -0.2931 
      8 C8         30.5761   -2.2618   -0.6156 C.3       12 UNK         0.0378 
      9 C9         30.9772   -2.4370   -2.0729 C.ar      12 UNK        -0.0802 
     10 C10        31.8273   -1.5081   -2.6830 C.ar      12 UNK        -0.0944 
     11 C11        32.2179   -1.6741   -4.0148 C.ar      12 UNK        -0.0787 
     12 C12        31.7564   -2.7786   -4.7343 C.ar      12 UNK        -0.0862 
     13 C13        30.9111   -3.7155   -4.1357 C.ar      12 UNK        -0.0733 
     14 C14        30.5251   -3.5404   -2.8033 C.ar      12 UNK        -0.0832 
     15 C15        30.4257   -4.9236   -4.9251 C.3       12 UNK         0.0240 
     16 S16        29.4857   -4.4559   -6.4133 S.3       12 UNK        -0.2522 
     17 C17        28.0995   -3.5155   -5.6963 C.3       12 UNK        -0.0967 
     18 CA         27.7245   -2.2713   -6.5377 C.3       5 UNK         0.0660 
     19 N          26.3103   -1.9312   -6.3569 N.am      5 UNK        -0.4015 
     20 C          25.6308   -1.0978   -7.1543 C.2       4 UNK         0.4946 
     21 O          26.1640   -0.3582   -7.9778 O.2       4 UNK        -0.5353 
     22 CA         24.1033   -1.1186   -7.0666 C.3       4 UNK         0.0277 
     23 CB         23.5561   -2.3706   -7.7836 C.3       4 UNK        -0.1981 
     24 N          23.6120   -1.0442   -5.6901 N.am      4 UNK        -0.4209 
     25 C          22.3443   -0.7378   -5.3752 C.2       3 UNK         0.4942 
     26 O          21.4901   -0.4397   -6.2124 O.2       3 UNK        -0.5208 
     27 CA         21.9500   -0.8228   -3.8932 C.3       3 UNK         0.0250 
     28 CB         20.4226   -0.7792   -3.6686 C.3       3 UNK        -0.1990 
     29 N          22.5200   -2.0353   -3.3098 N.am      3 UNK        -0.4232 
     30 C          22.7605   -2.2212   -2.0095 C.2       2 UNK         0.4993 
     31 O          22.4294   -1.4286   -1.1269 O.2       2 UNK        -0.5286 
     32 CA         23.5937   -3.4531   -1.6231 C.3       2 UNK         0.0209 
     33 CB         23.3957   -4.6847   -2.5384 C.3       2 UNK        -0.1931 
     34 N          24.9943   -3.0320   -1.5203 N.am      2 UNK        -0.4546 
     35 C          25.7902   -2.6270   -2.5224 C.2       1 UNK         0.5154 
     36 O          25.5713   -2.8425   -3.7175 O.2       1 UNK        -0.5181 
     37 C          28.6835   -1.0787   -6.3243 C.2       5 UNK         0.5014 
     38 O          29.5948   -0.8780   -7.1319 O.2       5 UNK        -0.5248 
     39 N          28.4376   -0.2739   -5.2817 N.am      6 UNK        -0.4434 
     40 CA         29.1938    0.9541   -5.0197 C.3       6 UNK         0.0363 
     41 CB         29.3540    1.1759   -3.5088 C.3       6 UNK        -0.1936 
     42 C          28.5309    2.1702   -5.6827 C.2       6 UNK         0.5081 
     43 O          29.2323    3.1326   -5.9882 O.2       6 UNK        -0.5248 
     44 N          27.2127    2.1055   -5.9270 N.am      7 UNK        -0.4718 
     45 CA         26.4416    3.1346   -6.6318 C.3       7 UNK         0.0273 
     46 CB         24.9402    2.8314   -6.5051 C.3       7 UNK        -0.1935 
     47 C          26.8590    3.2829   -8.1068 C.2       7 UNK         0.5018 
     48 O          27.0364    4.4077   -8.5751 O.2       7 UNK        -0.5186 
     49 N          27.0546    2.1490   -8.7956 N.am      8 UNK        -0.4240 
     50 CA         27.6300    2.0736  -10.1431 C.3       8 UNK         0.0235 
     51 CB         27.1671    0.7701  -10.8156 C.3       8 UNK        -0.2000 
     52 C          29.1689    2.1544  -10.1405 C.2       8 UNK         0.4941 
     53 O          29.7578    2.3020  -11.2119 O.2       8 UNK        -0.5273 
     54 N          29.7803    2.0558   -8.9503 N.am      9 UNK        -0.4262 
     55 CA         31.2135    2.1120   -8.6562 C.3       9 UNK         0.0264 
     56 CB         31.7806    3.5153   -8.9576 C.3       9 UNK        -0.1955 
     57 C          32.0012    0.9819   -9.3390 C.2       9 UNK         0.5031 
     58 O          32.9543    1.2484  -10.0751 O.2       9 UNK        -0.5390 
     59 N          31.6195   -0.2719   -9.0493 N.am      10 UNK        -0.4204 
     60 CA         32.2846   -1.4843   -9.5504 C.3       10 UNK         0.0237 
     61 CB         31.4699   -2.7182   -9.1337 C.3       10 UNK        -0.1985 
     62 C          33.7548   -1.6297   -9.1046 C.2       10 UNK         0.4970 
     63 O          34.5133   -2.3514   -9.7529 O.2       10 UNK        -0.4914 
     64 N          34.1309   -0.9242   -8.0308 N.am      11 UNK        -0.4285 
     65 CA         35.5115   -0.7428   -7.5619 C.3       11 UNK         0.1007 
     66 C          36.3895    0.1519   -8.4879 C.2       11 UNK         0.5703 
     67 N          35.8335    0.8871   -9.4455 N.am      11 UNK        -0.7361 
     68 O          37.6087    0.1725   -8.3362 O.2       11 UNK        -0.4986 
     69 C69        35.5439   -0.2182   -6.1007 C.3       12 UNK        -0.0947 
     70 S70        34.7986   -1.3913   -4.9222 S.3       12 UNK        -0.2240 
     71 C71        33.1425   -0.6743   -4.6879 C.3       12 UNK         0.0194 
     72 H72        25.4382    1.9344   -1.3295 H         1 UNK         0.0906 
     73 H73        25.8123    2.5832   -2.9286 H         1 UNK         0.0906 
     74 H74        24.2510    1.8149   -2.6309 H         1 UNK         0.0906 
     75 H75        26.4541   -0.0287   -0.9435 H         1 UNK         0.3140 
     76 H76        27.6523   -1.6704   -2.9555 H         1 UNK         0.1085 
     77 H77        27.0961   -2.3030   -0.0055 H         1 UNK         0.0836 
     78 H78        28.1000   -3.2482   -1.0691 H         1 UNK         0.0836 
     79 H79        30.3660   -3.2265   -0.1511 H         1 UNK         0.0731 
     80 H80        31.4141   -1.8392   -0.0590 H         1 UNK         0.0731 
     81 H81        32.1835   -0.6567   -2.1192 H         1 UNK         0.1312 
     82 H82        32.0616   -2.9121   -5.7627 H         1 UNK         0.1406 
     83 H83        29.8802   -4.2688   -2.3315 H         1 UNK         0.1631 
     84 H84        29.8038   -5.5724   -4.3064 H         1 UNK         0.0717 
     85 H85        31.2881   -5.5197   -5.2264 H         1 UNK         0.0717 
     86 H86        27.2570   -4.2079   -5.6505 H         1 UNK         0.0934 
     87 H87        28.3027   -3.2404   -4.6617 H         1 UNK         0.0934 
     88 H88        27.8204   -2.5485   -7.5903 H         1 UNK         0.0739 
     89 H89        25.8236   -2.4424   -5.6271 H         1 UNK         0.3093 
     90 H90        23.7455   -0.2378   -7.6041 H         1 UNK         0.0818 
     91 H91        22.4723   -2.3327   -7.8911 H         1 UNK         0.0819 
     92 H92        23.9707   -2.4585   -8.7890 H         1 UNK         0.0819 
     93 H93        23.8060   -3.2858   -7.2457 H         1 UNK         0.0819 
     94 H94        24.3005   -1.1510   -4.9514 H         1 UNK         0.3041 
     95 H95        22.3973    0.0456   -3.4048 H         1 UNK         0.0784 
     96 H96        19.9898    0.1307   -4.0865 H         1 UNK         0.0793 
     97 H97        19.9247   -1.6268   -4.1408 H         1 UNK         0.0793 
     98 H98        20.1715   -0.7923   -2.6081 H         1 UNK         0.0793 
     99 H99        22.8635   -2.7243   -3.9658 H         1 UNK         0.3024 
    100 H100       23.2756   -3.7402   -0.6191 H         1 UNK         0.1171 
    101 H101       23.9823   -5.5308   -2.1807 H         1 UNK         0.0786 
    102 H102       22.3508   -4.9976   -2.5393 H         1 UNK         0.0786 
    103 H103       23.6788   -4.5081   -3.5753 H         1 UNK         0.0786 
    104 H104       25.2737   -2.7685   -0.5858 H         1 UNK         0.2977 
    105 H105       27.5961   -0.4218   -4.7324 H         1 UNK         0.3127 
    106 H106       30.1991    0.8546   -5.4349 H         1 UNK         0.0770 
    107 H107       28.4340    1.5165   -3.0384 H         1 UNK         0.0814 
    108 H108       30.1094    1.9375   -3.3127 H         1 UNK         0.0814 
    109 H109       29.6739    0.2657   -3.0048 H         1 UNK         0.0814 
    110 H110       26.7017    1.2915   -5.6071 H         1 UNK         0.2983 
    111 H111       26.6368    4.0892   -6.1380 H         1 UNK         0.0947 
    112 H112       24.3444    3.6163   -6.9727 H         1 UNK         0.0806 
    113 H113       24.6331    2.7691   -5.4610 H         1 UNK         0.0806 
    114 H114       24.6747    1.8916   -6.9876 H         1 UNK         0.0806 
    115 H115       26.8175    1.2565   -8.3605 H         1 UNK         0.3000 
    116 H116       27.2573    2.9138  -10.7328 H         1 UNK         0.0850 
    117 H117       27.5116    0.7192  -11.8492 H         1 UNK         0.0810 
    118 H118       26.0797    0.6950  -10.8312 H         1 UNK         0.0810 
    119 H119       27.5559   -0.1087  -10.2991 H         1 UNK         0.0810 
    120 H120       29.1819    1.9437   -8.1446 H         1 UNK         0.3040 
    121 H121       31.3120    1.9473   -7.5823 H         1 UNK         0.0766 
    122 H122       31.7385    3.7520  -10.0213 H         1 UNK         0.0812 
    123 H123       32.8246    3.5883   -8.6503 H         1 UNK         0.0812 
    124 H124       31.2297    4.2868   -8.4195 H         1 UNK         0.0812 
    125 H125       30.8325   -0.4193   -8.4158 H         1 UNK         0.3205 
    126 H126       32.2847   -1.4284  -10.6408 H         1 UNK         0.0754 
    127 H127       31.9089   -3.6338   -9.5323 H         1 UNK         0.0769 
    128 H128       30.4449   -2.6623   -9.5009 H         1 UNK         0.0769 
    129 H129       31.4290   -2.8205   -8.0497 H         1 UNK         0.0769 
    130 H130       33.4332   -0.3635   -7.5702 H         1 UNK         0.2981 
    131 H131       35.9847   -1.7265   -7.5701 H         1 UNK         0.0541 
    132 H132       34.8299    0.8940   -9.5981 H         1 UNK         0.3459 
    133 H133       36.4271    1.4521  -10.0313 H         1 UNK         0.3459 
    134 H134       35.0478    0.7510   -6.0230 H         1 UNK         0.0612 
    135 H135       36.5735   -0.0576   -5.7753 H         1 UNK         0.0612 
    136 H136       32.7150   -0.3899   -5.6497 H         1 UNK         0.0624 
    137 H137       33.2247    0.2410   -4.0996 H         1 UNK         0.0624 
@<TRIPOS>BOND
     1    1    2 1    
     2    1   72 1    
     3    1   73 1    
     4    1   74 1    
     5    2    3 2    
     6    2    4 am   BACKBONE|DICT|INTERRES
     7    4    5 1    
     8    4   75 1    
     9    5    6 1    
    10    5   35 1    
    11    5   76 1    
    12    6    7 1    
    13    6   77 1    
    14    6   78 1    
    15    7    8 1    
    16    8    9 1    
    17    8   79 1    
    18    8   80 1    
    19    9   10 ar   
    20    9   14 ar   
    21   10   11 ar   
    22   10   81 1    
    23   11   12 ar   
    24   11   71 1    
    25   12   13 ar   
    26   12   82 1    
    27   13   14 ar   
    28   13   15 1    
    29   14   83 1    
    30   15   16 1    
    31   15   84 1    
    32   15   85 1    
    33   16   17 1    
    34   17   18 1    
    35   17   86 1    
    36   17   87 1    
    37   18   19 1    
    38   18   37 1    
    39   18   88 1    
    40   19   20 am   BACKBONE|DICT|INTERRES
    41   19   89 1    
    42   20   21 2    
    43   20   22 1    
    44   22   23 1    
    45   22   24 1    
    46   22   90 1    
    47   23   91 1    
    48   23   92 1    
    49   23   93 1    
    50   24   25 am   BACKBONE|DICT|INTERRES
    51   24   94 1    
    52   25   26 2    
    53   25   27 1    
    54   27   28 1    
    55   27   29 1    
    56   27   95 1    
    57   28   96 1    
    58   28   97 1    
    59   28   98 1    
    60   29   30 am   BACKBONE|DICT|INTERRES
    61   29   99 1    
    62   30   31 2    
    63   30   32 1    
    64   32   33 1    
    65   32   34 1    
    66   32  100 1    
    67   33  101 1    
    68   33  102 1    
    69   33  103 1    
    70   34   35 am   BACKBONE|DICT|INTERRES
    71   34  104 1    
    72   35   36 2    
    73   37   38 2    
    74   37   39 am   BACKBONE|DICT|INTERRES
    75   39   40 1    
    76   39  105 1    
    77   40   41 1    
    78   40   42 1    
    79   40  106 1    
    80   41  107 1    
    81   41  108 1    
    82   41  109 1    
    83   42   43 2    
    84   42   44 am   BACKBONE|DICT|INTERRES
    85   44   45 1    
    86   44  110 1    
    87   45   46 1    
    88   45   47 1    
    89   45  111 1    
    90   46  112 1    
    91   46  113 1    
    92   46  114 1    
    93   47   48 2    
    94   47   49 am   BACKBONE|DICT|INTERRES
    95   49   50 1    
    96   49  115 1    
    97   50   51 1    
    98   50   52 1    
    99   50  116 1    
   100   51  117 1    
   101   51  118 1    
   102   51  119 1    
   103   52   53 2    
   104   52   54 am   BACKBONE|DICT|INTERRES
   105   54   55 1    
   106   54  120 1    
   107   55   56 1    
   108   55   57 1    
   109   55  121 1    
   110   56  122 1    
   111   56  123 1    
   112   56  124 1    
   113   57   58 2    
   114   57   59 am   BACKBONE|DICT|INTERRES
   115   59   60 1    
   116   59  125 1    
   117   60   61 1    
   118   60   62 1    
   119   60  126 1    
   120   61  127 1    
   121   61  128 1    
   122   61  129 1    
   123   62   63 2    
   124   62   64 am   BACKBONE|DICT|INTERRES
   125   64   65 1    
   126   64  130 1    
   127   65   66 1    
   128   65   69 1    
   129   65  131 1    
   130   66   67 am   BACKBONE|DICT|INTERRES
   131   66   68 2    
   132   67  132 1    
   133   67  133 1    
   134   69   70 1    
   135   69  134 1    
   136   69  135 1    
   137   70   71 1    
   138   71  136 1    
   139   71  137 1    
@<TRIPOS>SUBSTRUCTURE
     1 UNK         1 GROUP             0       ****    0 ROOT    
