@<TRIPOS>MOLECULE
3R137
137   139    1
SMALL
USER_CHARGES


@<TRIPOS>ATOM
      1 CA         26.1237   -6.0889    0.9784 C.3       0 UNK        -0.2020 
      2 C          26.4097   -4.8358    0.1652 C.2       0 UNK         0.4855 
      3 O          26.5512   -3.7527    0.7351 O.2       0 UNK        -0.5197 
      4 N          26.4985   -4.9691   -1.1640 N.am      1 UNK        -0.4892 
      5 CA         26.7420   -3.8707   -2.1022 C.3       1 UNK         0.0835 
      6 C6         27.3362   -4.3717   -3.4445 C.3       12 UNK        -0.0855 
      7 S7         28.9410   -5.2221   -3.2764 S.3       12 UNK        -0.2931 
      8 C8         29.9187   -4.4249   -4.6053 C.3       12 UNK         0.0378 
      9 C9         30.6011   -3.1045   -4.2355 C.ar      12 UNK        -0.0802 
     10 C10        31.6200   -2.6253   -5.0657 C.ar      12 UNK        -0.0944 
     11 C11        32.3156   -1.4541   -4.7487 C.ar      12 UNK        -0.0787 
     12 C12        31.9589   -0.7300   -3.6072 C.ar      12 UNK        -0.0862 
     13 C13        30.9302   -1.1827   -2.7767 C.ar      12 UNK        -0.0733 
     14 C14        30.2663   -2.3704   -3.0913 C.ar      12 UNK        -0.0832 
     15 C15        30.5547   -0.4134   -1.5181 C.3       12 UNK         0.0240 
     16 S16        29.4736    1.0067   -1.8749 S.3       12 UNK        -0.2522 
     17 C17        27.9664    0.2133   -2.5369 C.3       12 UNK        -0.0967 
     18 CA         27.8782    0.3143   -4.0813 C.3       5 UNK         0.0660 
     19 N          26.8805   -0.5946   -4.6537 N.am      5 UNK        -0.4015 
     20 C          26.8988   -1.0073   -5.9311 C.2       4 UNK         0.4946 
     21 O          27.8412   -0.8001   -6.6943 O.2       4 UNK        -0.5353 
     22 CA         25.6518   -1.7246   -6.4819 C.3       4 UNK         0.0277 
     23 CB         25.8739   -3.2369   -6.6450 C.3       4 UNK        -0.1981 
     24 N          24.4438   -1.4768   -5.6901 N.am      4 UNK        -0.4209 
     25 C          23.7334   -0.3414   -5.7613 C.2       3 UNK         0.4942 
     26 O          24.0077    0.5800   -6.5275 O.2       3 UNK        -0.5208 
     27 CA         22.5571   -0.1695   -4.7832 C.3       3 UNK         0.0250 
     28 CB         21.2649   -0.7339   -5.3936 C.3       3 UNK        -0.1990 
     29 N          22.7826   -0.7756   -3.4681 N.am      3 UNK        -0.4232 
     30 C          23.8019   -0.4861   -2.6476 C.2       2 UNK         0.4993 
     31 O          24.6696    0.3485   -2.9121 O.2       2 UNK        -0.5286 
     32 CA         23.9282   -1.3096   -1.3507 C.3       2 UNK         0.0209 
     33 CB         22.6686   -2.1353   -1.0027 C.3       2 UNK        -0.1931 
     34 N          25.1101   -2.1835   -1.3737 N.am      2 UNK        -0.4546 
     35 C          25.4422   -3.0694   -2.3251 C.2       1 UNK         0.5154 
     36 O          24.7665   -3.2708   -3.3369 O.2       1 UNK        -0.5181 
     37 C          27.5927    1.7534   -4.5531 C.2       5 UNK         0.5014 
     38 O          28.5148    2.4369   -4.9961 O.2       5 UNK        -0.5248 
     39 N          26.3165    2.1693   -4.5027 N.am      6 UNK        -0.4434 
     40 CA         25.8422    3.4714   -4.9857 C.3       6 UNK         0.0363 
     41 CB         24.3553    3.6434   -4.6377 C.3       6 UNK        -0.1936 
     42 C          26.0830    3.6847   -6.4922 C.2       6 UNK         0.5081 
     43 O          26.5094    4.7690   -6.8896 O.2       6 UNK        -0.5248 
     44 N          25.8461    2.6389   -7.2965 N.am      7 UNK        -0.4718 
     45 CA         26.1529    2.5999   -8.7306 C.3       7 UNK         0.0273 
     46 CB         25.3379    1.4733   -9.3864 C.3       7 UNK        -0.1935 
     47 C          27.6529    2.4207   -9.0399 C.2       7 UNK         0.5018 
     48 O          28.0445    2.6222  -10.1899 O.2       7 UNK        -0.5186 
     49 N          28.4482    2.0459   -8.0262 N.am      8 UNK        -0.4240 
     50 CA         29.8890    1.7804   -8.0515 C.3       8 UNK         0.0235 
     51 CB         30.6768    3.0840   -8.2947 C.3       8 UNK        -0.2000 
     52 C          30.2601    0.6522   -9.0299 C.2       8 UNK         0.4941 
     53 O          30.9993    0.8789   -9.9908 O.2       8 UNK        -0.5273 
     54 N          29.7246   -0.5493   -8.7735 N.am      9 UNK        -0.4262 
     55 CA         30.0033   -1.7759   -9.5241 C.3       9 UNK         0.0264 
     56 CB         29.1920   -2.9341   -8.9222 C.3       9 UNK        -0.1955 
     57 C          31.5066   -2.1040   -9.5370 C.2       9 UNK         0.5031 
     58 O          32.0907   -2.3195   -8.4745 O.2       9 UNK        -0.5390 
     59 N          32.1062   -2.0848  -10.7345 N.am      10 UNK        -0.4204 
     60 CA         33.5342   -2.2408  -11.0496 C.3       10 UNK         0.0237 
     61 CB         34.0937   -3.5888  -10.5516 C.3       10 UNK        -0.1985 
     62 C          34.4247   -1.0654  -10.5995 C.2       10 UNK         0.4970 
     63 O          35.3128   -0.6781  -11.3604 O.2       10 UNK        -0.4914 
     64 N          34.1916   -0.5191   -9.3998 N.am      11 UNK        -0.4285 
     65 CA         34.9185    0.6366   -8.8491 C.3       11 UNK         0.1007 
     66 C          34.6129    2.0075   -9.5185 C.2       11 UNK         0.5703 
     67 N          33.5172    2.1756  -10.2461 N.am      11 UNK        -0.7361 
     68 O          35.4096    2.9354   -9.3963 O.2       11 UNK        -0.4986 
     69 C69        34.8569    0.7046   -7.2984 C.3       12 UNK        -0.0947 
     70 S70        33.1949    0.4791   -6.5682 S.3       12 UNK        -0.2240 
     71 C71        33.5084   -1.0221   -5.5890 C.3       12 UNK         0.0194 
     72 H72        25.1952   -5.9700    1.5362 H         1 UNK         0.0906 
     73 H73        26.0300   -6.9726    0.3474 H         1 UNK         0.0906 
     74 H74        26.9292   -6.2651    1.6909 H         1 UNK         0.0906 
     75 H75        26.3703   -5.8791   -1.5840 H         1 UNK         0.3140 
     76 H76        27.4642   -3.1905   -1.6494 H         1 UNK         0.1085 
     77 H77        27.4659   -3.5268   -4.1223 H         1 UNK         0.0836 
     78 H78        26.6483   -5.0618   -3.9368 H         1 UNK         0.0836 
     79 H79        29.2883   -4.2699   -5.4823 H         1 UNK         0.0731 
     80 H80        30.6880   -5.1365   -4.9094 H         1 UNK         0.0731 
     81 H81        31.8979   -3.1861   -5.9482 H         1 UNK         0.1312 
     82 H82        32.4941    0.1760   -3.3568 H         1 UNK         0.1406 
     83 H83        29.4984   -2.7227   -2.4238 H         1 UNK         0.1631 
     84 H84        31.4610   -0.0497   -1.0316 H         1 UNK         0.0717 
     85 H85        30.0654   -1.0669   -0.7940 H         1 UNK         0.0717 
     86 H86        27.9518   -0.8299   -2.2250 H         1 UNK         0.0934 
     87 H87        27.1003    0.6730   -2.0583 H         1 UNK         0.0934 
     88 H88        28.8524    0.0265   -4.4847 H         1 UNK         0.0739 
     89 H89        26.0354   -0.7258   -4.1124 H         1 UNK         0.3093 
     90 H90        25.4940   -1.3222   -7.4842 H         1 UNK         0.0818 
     91 H91        25.7636   -3.7732   -5.7063 H         1 UNK         0.0819 
     92 H92        25.1516   -3.6597   -7.3433 H         1 UNK         0.0819 
     93 H93        26.8671   -3.4587   -7.0363 H         1 UNK         0.0819 
     94 H94        24.2009   -2.1740   -4.9923 H         1 UNK         0.3041 
     95 H95        22.4189    0.9018   -4.6258 H         1 UNK         0.0784 
     96 H96        21.0628   -0.2809   -6.3654 H         1 UNK         0.0793 
     97 H97        21.3256   -1.8127   -5.5431 H         1 UNK         0.0793 
     98 H98        20.4028   -0.5297   -4.7583 H         1 UNK         0.0793 
     99 H99        22.1398   -1.5020   -3.1870 H         1 UNK         0.3024 
    100 H100       24.0838   -0.5846   -0.5498 H         1 UNK         0.1171 
    101 H101       22.7779   -2.6147   -0.0296 H         1 UNK         0.0786 
    102 H102       21.7820   -1.5023   -0.9447 H         1 UNK         0.0786 
    103 H103       22.4730   -2.9232   -1.7312 H         1 UNK         0.0786 
    104 H104       25.7030   -2.1432   -0.5524 H         1 UNK         0.2977 
    105 H105       25.6249    1.5592   -4.0741 H         1 UNK         0.3127 
    106 H106       26.4058    4.2391   -4.4513 H         1 UNK         0.0770 
    107 H107       23.7313    2.9160   -5.1565 H         1 UNK         0.0814 
    108 H108       24.0024    4.6351   -4.9235 H         1 UNK         0.0814 
    109 H109       24.1809    3.5326   -3.5672 H         1 UNK         0.0814 
    110 H110       25.3909    1.8163   -6.9065 H         1 UNK         0.2983 
    111 H111       25.8419    3.5484   -9.1740 H         1 UNK         0.0947 
    112 H112       25.4867    1.4602  -10.4669 H         1 UNK         0.0806 
    113 H113       24.2696    1.5986   -9.2081 H         1 UNK         0.0806 
    114 H114       25.6295    0.4945   -9.0060 H         1 UNK         0.0806 
    115 H115       28.0154    1.9261   -7.1197 H         1 UNK         0.3000 
    116 H116       30.1509    1.4219   -7.0544 H         1 UNK         0.0850 
    117 H117       31.7476    2.9135   -8.1825 H         1 UNK         0.0810 
    118 H118       30.3962    3.8542   -7.5764 H         1 UNK         0.0810 
    119 H119       30.5107    3.4804   -9.2968 H         1 UNK         0.0810 
    120 H120       29.1054   -0.6429   -7.9680 H         1 UNK         0.3040 
    121 H121       29.6624   -1.6178  -10.5491 H         1 UNK         0.0766 
    122 H122       29.3922   -3.8690   -9.4471 H         1 UNK         0.0812 
    123 H123       28.1217   -2.7422   -8.9948 H         1 UNK         0.0812 
    124 H124       29.4356   -3.0889   -7.8700 H         1 UNK         0.0812 
    125 H125       31.5295   -1.8427  -11.5289 H         1 UNK         0.3205 
    126 H126       33.5830   -2.2586  -12.1396 H         1 UNK         0.0754 
    127 H127       35.1131   -3.7401  -10.9090 H         1 UNK         0.0769 
    128 H128       33.4957   -4.4249  -10.9140 H         1 UNK         0.0769 
    129 H129       34.1240   -3.6444   -9.4631 H         1 UNK         0.0769 
    130 H130       33.4451   -0.9047   -8.8296 H         1 UNK         0.2981 
    131 H131       35.9700    0.4621   -9.0863 H         1 UNK         0.0541 
    132 H132       32.7846    1.4717  -10.2670 H         1 UNK         0.3459 
    133 H133       33.3570    3.0678  -10.6835 H         1 UNK         0.3459 
    134 H134       35.5229   -0.0610   -6.8981 H         1 UNK         0.0612 
    135 H135       35.2657    1.6470   -6.9294 H         1 UNK         0.0612 
    136 H136       34.3563   -0.8446   -4.9257 H         1 UNK         0.0624 
    137 H137       33.8097   -1.8243   -6.2648 H         1 UNK         0.0624 
@<TRIPOS>BOND
     1    1    2 1    
     2    1   72 1    
     3    1   73 1    
     4    1   74 1    
     5    2    3 2    
     6    2    4 am   BACKBONE|DICT|INTERRES
     7    4    5 1    
     8    4   75 1    
     9    5    6 1    
    10    5   35 1    
    11    5   76 1    
    12    6    7 1    
    13    6   77 1    
    14    6   78 1    
    15    7    8 1    
    16    8    9 1    
    17    8   79 1    
    18    8   80 1    
    19    9   10 ar   
    20    9   14 ar   
    21   10   11 ar   
    22   10   81 1    
    23   11   12 ar   
    24   11   71 1    
    25   12   13 ar   
    26   12   82 1    
    27   13   14 ar   
    28   13   15 1    
    29   14   83 1    
    30   15   16 1    
    31   15   84 1    
    32   15   85 1    
    33   16   17 1    
    34   17   18 1    
    35   17   86 1    
    36   17   87 1    
    37   18   19 1    
    38   18   37 1    
    39   18   88 1    
    40   19   20 am   BACKBONE|DICT|INTERRES
    41   19   89 1    
    42   20   21 2    
    43   20   22 1    
    44   22   23 1    
    45   22   24 1    
    46   22   90 1    
    47   23   91 1    
    48   23   92 1    
    49   23   93 1    
    50   24   25 am   BACKBONE|DICT|INTERRES
    51   24   94 1    
    52   25   26 2    
    53   25   27 1    
    54   27   28 1    
    55   27   29 1    
    56   27   95 1    
    57   28   96 1    
    58   28   97 1    
    59   28   98 1    
    60   29   30 am   BACKBONE|DICT|INTERRES
    61   29   99 1    
    62   30   31 2    
    63   30   32 1    
    64   32   33 1    
    65   32   34 1    
    66   32  100 1    
    67   33  101 1    
    68   33  102 1    
    69   33  103 1    
    70   34   35 am   BACKBONE|DICT|INTERRES
    71   34  104 1    
    72   35   36 2    
    73   37   38 2    
    74   37   39 am   BACKBONE|DICT|INTERRES
    75   39   40 1    
    76   39  105 1    
    77   40   41 1    
    78   40   42 1    
    79   40  106 1    
    80   41  107 1    
    81   41  108 1    
    82   41  109 1    
    83   42   43 2    
    84   42   44 am   BACKBONE|DICT|INTERRES
    85   44   45 1    
    86   44  110 1    
    87   45   46 1    
    88   45   47 1    
    89   45  111 1    
    90   46  112 1    
    91   46  113 1    
    92   46  114 1    
    93   47   48 2    
    94   47   49 am   BACKBONE|DICT|INTERRES
    95   49   50 1    
    96   49  115 1    
    97   50   51 1    
    98   50   52 1    
    99   50  116 1    
   100   51  117 1    
   101   51  118 1    
   102   51  119 1    
   103   52   53 2    
   104   52   54 am   BACKBONE|DICT|INTERRES
   105   54   55 1    
   106   54  120 1    
   107   55   56 1    
   108   55   57 1    
   109   55  121 1    
   110   56  122 1    
   111   56  123 1    
   112   56  124 1    
   113   57   58 2    
   114   57   59 am   BACKBONE|DICT|INTERRES
   115   59   60 1    
   116   59  125 1    
   117   60   61 1    
   118   60   62 1    
   119   60  126 1    
   120   61  127 1    
   121   61  128 1    
   122   61  129 1    
   123   62   63 2    
   124   62   64 am   BACKBONE|DICT|INTERRES
   125   64   65 1    
   126   64  130 1    
   127   65   66 1    
   128   65   69 1    
   129   65  131 1    
   130   66   67 am   BACKBONE|DICT|INTERRES
   131   66   68 2    
   132   67  132 1    
   133   67  133 1    
   134   69   70 1    
   135   69  134 1    
   136   69  135 1    
   137   70   71 1    
   138   71  136 1    
   139   71  137 1    
@<TRIPOS>SUBSTRUCTURE
     1 UNK         1 GROUP             0       ****    0 ROOT    
