@<TRIPOS>MOLECULE
3R137
137   139    1
SMALL
USER_CHARGES


@<TRIPOS>ATOM
      1 CA         26.4042   -4.3624   -8.4167 C.3       0 UNK        -0.2020 
      2 C          26.1833   -5.0810   -7.0950 C.2       0 UNK         0.4855 
      3 O          25.5272   -6.1219   -7.0605 O.2       0 UNK        -0.5197 
      4 N          26.7107   -4.5241   -5.9982 N.am      1 UNK        -0.4892 
      5 CA         26.7052   -5.0815   -4.6348 C.3       1 UNK         0.0835 
      6 C6         27.8532   -4.4692   -3.7869 C.3       12 UNK        -0.0855 
      7 S7         29.4896   -4.7651   -4.5379 S.3       12 UNK        -0.2931 
      8 C8         30.5907   -4.5892   -3.0999 C.3       12 UNK         0.0378 
      9 C9         30.8686   -3.1307   -2.7624 C.ar      12 UNK        -0.0802 
     10 C10        31.6945   -2.3716   -3.5976 C.ar      12 UNK        -0.0944 
     11 C11        32.0116   -1.0513   -3.2698 C.ar      12 UNK        -0.0787 
     12 C12        31.5097   -0.4939   -2.0934 C.ar      12 UNK        -0.0862 
     13 C13        30.6628   -1.2307   -1.2612 C.ar      12 UNK        -0.0733 
     14 C14        30.3418   -2.5501   -1.6025 C.ar      12 UNK        -0.0832 
     15 C15        30.1251   -0.6087    0.0207 C.3       12 UNK         0.0240 
     16 S16        28.5591    0.2847   -0.2443 S.3       12 UNK        -0.2522 
     17 C17        29.1016    1.7714   -1.1605 C.3       12 UNK        -0.0967 
     18 CA         28.6235    1.7523   -2.6373 C.3       5 UNK         0.0660 
     19 N          27.1533    1.7458   -2.6971 N.am      5 UNK        -0.4015 
     20 C          26.3729    1.4302   -3.7375 C.2       4 UNK         0.4946 
     21 O          26.7981    1.1850   -4.8709 O.2       4 UNK        -0.5353 
     22 CA         24.8571    1.4596   -3.4686 C.3       4 UNK         0.0277 
     23 CB         24.3320    2.9042   -3.5329 C.3       4 UNK        -0.1981 
     24 N          24.0880    0.6303   -4.4017 N.am      4 UNK        -0.4209 
     25 C          24.2226   -0.6953   -4.5368 C.2       3 UNK         0.4942 
     26 O          25.0064   -1.3774   -3.8723 O.2       3 UNK        -0.5208 
     27 CA         23.3451   -1.3584   -5.6137 C.3       3 UNK         0.0250 
     28 CB         23.9068   -1.0740   -7.0169 C.3       3 UNK        -0.1990 
     29 N          23.2947   -2.8064   -5.4213 N.am      3 UNK        -0.4232 
     30 C          22.5561   -3.4464   -4.5042 C.2       2 UNK         0.4993 
     31 O          21.6787   -2.9083   -3.8275 O.2       2 UNK        -0.5286 
     32 CA         22.8652   -4.9425   -4.3011 C.3       2 UNK         0.0209 
     33 CB         21.9054   -5.8123   -5.1289 C.3       2 UNK        -0.1931 
     34 N          24.2486   -5.2683   -4.6643 N.am      2 UNK        -0.4546 
     35 C          25.3274   -4.9372   -3.9414 C.2       1 UNK         0.5154 
     36 O          25.2532   -4.5121   -2.7871 O.2       1 UNK        -0.5181 
     37 C          29.2741    2.8739   -3.4902 C.2       5 UNK         0.5014 
     38 O          30.1356    3.6082   -3.0032 O.2       5 UNK        -0.5248 
     39 N          28.8455    2.9705   -4.7508 N.am      6 UNK        -0.4434 
     40 CA         29.3088    3.8471   -5.8237 C.3       6 UNK         0.0363 
     41 CB         29.0764    5.3357   -5.4969 C.3       6 UNK        -0.1936 
     42 C          28.5717    3.4459   -7.1079 C.2       6 UNK         0.5081 
     43 O          29.2104    3.1749   -8.1251 O.2       6 UNK        -0.5248 
     44 N          27.2352    3.3447   -7.0126 N.am      7 UNK        -0.4718 
     45 CA         26.3224    2.8843   -8.0687 C.3       7 UNK         0.0273 
     46 CB         24.8731    3.0199   -7.5769 C.3       7 UNK        -0.1935 
     47 C          26.5885    1.4449   -8.5478 C.2       7 UNK         0.5018 
     48 O          26.2598    1.1203   -9.6887 O.2       7 UNK        -0.5186 
     49 N          27.2154    0.6289   -7.6878 N.am      8 UNK        -0.4240 
     50 CA         27.7643   -0.6960   -7.9838 C.3       8 UNK         0.0235 
     51 CB         28.3362   -1.2916   -6.6845 C.3       8 UNK        -0.2000 
     52 C          28.8258   -0.7281   -9.1034 C.2       8 UNK         0.4941 
     53 O          29.1108   -1.8157   -9.6054 O.2       8 UNK        -0.5273 
     54 N          29.4027    0.4294   -9.4704 N.am      9 UNK        -0.4262 
     55 CA         30.3262    0.6908  -10.5885 C.3       9 UNK         0.0264 
     56 CB         29.6883    0.3245  -11.9424 C.3       9 UNK        -0.1955 
     57 C          31.7249    0.0645  -10.4505 C.2       9 UNK         0.5031 
     58 O          32.7058    0.6994  -10.8423 O.2       9 UNK        -0.5390 
     59 N          31.8111   -1.1287   -9.8481 N.am      10 UNK        -0.4204 
     60 CA         33.0427   -1.8468   -9.4948 C.3       10 UNK         0.0237 
     61 CB         32.6642   -3.1956   -8.8609 C.3       10 UNK        -0.1985 
     62 C          33.9830   -1.0610   -8.5591 C.2       10 UNK         0.4970 
     63 O          35.1750   -1.3651   -8.5035 O.2       10 UNK        -0.4914 
     64 N          33.4312   -0.0614   -7.8617 N.am      11 UNK        -0.4285 
     65 CA         34.1433    0.9241   -7.0416 C.3       11 UNK         0.1007 
     66 C          35.0798    1.8757   -7.8432 C.2       11 UNK         0.5703 
     67 N          34.9323    2.0068   -9.1579 N.am      11 UNK        -0.7361 
     68 O          35.9579    2.5047   -7.2578 O.2       11 UNK        -0.4986 
     69 C69        33.1603    1.7492   -6.1647 C.3       12 UNK        -0.0947 
     70 S70        31.8782    0.7592   -5.3249 S.3       12 UNK        -0.2240 
     71 C71        32.8941   -0.2194   -4.1817 C.3       12 UNK         0.0194 
     72 H72        27.3314   -3.7900   -8.4105 H         1 UNK         0.0906 
     73 H73        26.4672   -5.0826   -9.2322 H         1 UNK         0.0906 
     74 H74        25.5764   -3.6851   -8.6244 H         1 UNK         0.0906 
     75 H75        27.2368   -3.6679   -6.0900 H         1 UNK         0.3140 
     76 H76        26.8895   -6.1557   -4.7110 H         1 UNK         0.1085 
     77 H77        27.8530   -4.8990   -2.7834 H         1 UNK         0.0836 
     78 H78        27.7136   -3.3930   -3.6613 H         1 UNK         0.0836 
     79 H79        30.1739   -5.1204   -2.2429 H         1 UNK         0.0731 
     80 H80        31.5367   -5.0831   -3.3267 H         1 UNK         0.0731 
     81 H81        32.0916   -2.8120   -4.5022 H         1 UNK         0.1312 
     82 H82        31.7787    0.5202   -1.8357 H         1 UNK         0.1406 
     83 H83        29.6980   -3.1295   -0.9545 H         1 UNK         0.1631 
     84 H84        30.8638    0.0664    0.4557 H         1 UNK         0.0717 
     85 H85        29.9575   -1.3881    0.7655 H         1 UNK         0.0717 
     86 H86        28.7095    2.6521   -0.6485 H         1 UNK         0.0934 
     87 H87        30.1853    1.8610   -1.0909 H         1 UNK         0.0934 
     88 H88        28.9665    0.8149   -3.0817 H         1 UNK         0.0739 
     89 H89        26.7001    1.9573   -1.8203 H         1 UNK         0.3093 
     90 H90        24.6827    1.0661   -2.4649 H         1 UNK         0.0818 
     91 H91        23.2668    2.9504   -3.3053 H         1 UNK         0.0819 
     92 H92        24.8400    3.5416   -2.8078 H         1 UNK         0.0819 
     93 H93        24.4843    3.3502   -4.5159 H         1 UNK         0.0819 
     94 H94        23.4339    1.1136   -4.9988 H         1 UNK         0.3041 
     95 H95        22.3329   -0.9543   -5.5424 H         1 UNK         0.0784 
     96 H96        23.9255   -0.0047   -7.2288 H         1 UNK         0.0793 
     97 H97        24.9270   -1.4430   -7.1188 H         1 UNK         0.0793 
     98 H98        23.3007   -1.5442   -7.7915 H         1 UNK         0.0793 
     99 H99        24.0159   -3.3396   -5.8809 H         1 UNK         0.3024 
    100 H100       22.7170   -5.1695   -3.2427 H         1 UNK         0.1171 
    101 H101       22.0168   -5.6322   -6.1990 H         1 UNK         0.0786 
    102 H102       20.8668   -5.6032   -4.8684 H         1 UNK         0.0786 
    103 H103       22.0767   -6.8736   -4.9476 H         1 UNK         0.0786 
    104 H104       24.4151   -5.6569   -5.5897 H         1 UNK         0.2977 
    105 H105       28.1325    2.2913   -5.0196 H         1 UNK         0.3127 
    106 H106       30.3763    3.6734   -5.9721 H         1 UNK         0.0770 
    107 H107       28.0349    5.5401   -5.2470 H         1 UNK         0.0814 
    108 H108       29.3394    5.9661   -6.3474 H         1 UNK         0.0814 
    109 H109       29.6903    5.6620   -4.6578 H         1 UNK         0.0814 
    110 H110       26.8042    3.5873   -6.1326 H         1 UNK         0.2983 
    111 H111       26.4597    3.5415   -8.9300 H         1 UNK         0.0947 
    112 H112       24.1677    2.7332   -8.3583 H         1 UNK         0.0806 
    113 H113       24.6408    4.0465   -7.2936 H         1 UNK         0.0806 
    114 H114       24.6830    2.3786   -6.7167 H         1 UNK         0.0806 
    115 H115       27.3160    0.9509   -6.7299 H         1 UNK         0.3000 
    116 H116       26.9380   -1.3210   -8.3240 H         1 UNK         0.0850 
    117 H117       29.1279   -0.6649   -6.2712 H         1 UNK         0.0810 
    118 H118       27.5647   -1.3930   -5.9202 H         1 UNK         0.0810 
    119 H119       28.7653   -2.2803   -6.8530 H         1 UNK         0.0810 
    120 H120       29.1458    1.2611   -8.9468 H         1 UNK         0.3040 
    121 H121       30.4759    1.7719  -10.5833 H         1 UNK         0.0766 
    122 H122       28.7291    0.8251  -12.0755 H         1 UNK         0.0812 
    123 H123       29.5226   -0.7488  -12.0398 H         1 UNK         0.0812 
    124 H124       30.3310    0.6286  -12.7696 H         1 UNK         0.0812 
    125 H125       30.9270   -1.5804   -9.6192 H         1 UNK         0.3205 
    126 H126       33.5898   -2.0365  -10.4203 H         1 UNK         0.0754 
    127 H127       32.0664   -3.8009   -9.5426 H         1 UNK         0.0769 
    128 H128       32.0918   -3.0619   -7.9416 H         1 UNK         0.0769 
    129 H129       33.5542   -3.7750   -8.6107 H         1 UNK         0.0769 
    130 H130       32.4399    0.0934   -7.9592 H         1 UNK         0.2981 
    131 H131       34.7956    0.3605   -6.3730 H         1 UNK         0.0541 
    132 H132       34.2063    1.5034   -9.6554 H         1 UNK         0.3459 
    133 H133       35.5481    2.6244   -9.6619 H         1 UNK         0.3459 
    134 H134       33.7071    2.3170   -5.4097 H         1 UNK         0.0612 
    135 H135       32.6370    2.4860   -6.7773 H         1 UNK         0.0612 
    136 H136       33.5257    0.4459   -3.5911 H         1 UNK         0.0624 
    137 H137       33.5630   -0.8682   -4.7486 H         1 UNK         0.0624 
@<TRIPOS>BOND
     1    1    2 1    
     2    1   72 1    
     3    1   73 1    
     4    1   74 1    
     5    2    3 2    
     6    2    4 am   BACKBONE|DICT|INTERRES
     7    4    5 1    
     8    4   75 1    
     9    5    6 1    
    10    5   35 1    
    11    5   76 1    
    12    6    7 1    
    13    6   77 1    
    14    6   78 1    
    15    7    8 1    
    16    8    9 1    
    17    8   79 1    
    18    8   80 1    
    19    9   10 ar   
    20    9   14 ar   
    21   10   11 ar   
    22   10   81 1    
    23   11   12 ar   
    24   11   71 1    
    25   12   13 ar   
    26   12   82 1    
    27   13   14 ar   
    28   13   15 1    
    29   14   83 1    
    30   15   16 1    
    31   15   84 1    
    32   15   85 1    
    33   16   17 1    
    34   17   18 1    
    35   17   86 1    
    36   17   87 1    
    37   18   19 1    
    38   18   37 1    
    39   18   88 1    
    40   19   20 am   BACKBONE|DICT|INTERRES
    41   19   89 1    
    42   20   21 2    
    43   20   22 1    
    44   22   23 1    
    45   22   24 1    
    46   22   90 1    
    47   23   91 1    
    48   23   92 1    
    49   23   93 1    
    50   24   25 am   BACKBONE|DICT|INTERRES
    51   24   94 1    
    52   25   26 2    
    53   25   27 1    
    54   27   28 1    
    55   27   29 1    
    56   27   95 1    
    57   28   96 1    
    58   28   97 1    
    59   28   98 1    
    60   29   30 am   BACKBONE|DICT|INTERRES
    61   29   99 1    
    62   30   31 2    
    63   30   32 1    
    64   32   33 1    
    65   32   34 1    
    66   32  100 1    
    67   33  101 1    
    68   33  102 1    
    69   33  103 1    
    70   34   35 am   BACKBONE|DICT|INTERRES
    71   34  104 1    
    72   35   36 2    
    73   37   38 2    
    74   37   39 am   BACKBONE|DICT|INTERRES
    75   39   40 1    
    76   39  105 1    
    77   40   41 1    
    78   40   42 1    
    79   40  106 1    
    80   41  107 1    
    81   41  108 1    
    82   41  109 1    
    83   42   43 2    
    84   42   44 am   BACKBONE|DICT|INTERRES
    85   44   45 1    
    86   44  110 1    
    87   45   46 1    
    88   45   47 1    
    89   45  111 1    
    90   46  112 1    
    91   46  113 1    
    92   46  114 1    
    93   47   48 2    
    94   47   49 am   BACKBONE|DICT|INTERRES
    95   49   50 1    
    96   49  115 1    
    97   50   51 1    
    98   50   52 1    
    99   50  116 1    
   100   51  117 1    
   101   51  118 1    
   102   51  119 1    
   103   52   53 2    
   104   52   54 am   BACKBONE|DICT|INTERRES
   105   54   55 1    
   106   54  120 1    
   107   55   56 1    
   108   55   57 1    
   109   55  121 1    
   110   56  122 1    
   111   56  123 1    
   112   56  124 1    
   113   57   58 2    
   114   57   59 am   BACKBONE|DICT|INTERRES
   115   59   60 1    
   116   59  125 1    
   117   60   61 1    
   118   60   62 1    
   119   60  126 1    
   120   61  127 1    
   121   61  128 1    
   122   61  129 1    
   123   62   63 2    
   124   62   64 am   BACKBONE|DICT|INTERRES
   125   64   65 1    
   126   64  130 1    
   127   65   66 1    
   128   65   69 1    
   129   65  131 1    
   130   66   67 am   BACKBONE|DICT|INTERRES
   131   66   68 2    
   132   67  132 1    
   133   67  133 1    
   134   69   70 1    
   135   69  134 1    
   136   69  135 1    
   137   70   71 1    
   138   71  136 1    
   139   71  137 1    
@<TRIPOS>SUBSTRUCTURE
     1 UNK         1 GROUP             0       ****    0 ROOT    
