@<TRIPOS>MOLECULE
3R137
137   139    1
SMALL
USER_CHARGES


@<TRIPOS>ATOM
      1 CA         27.0952   -5.5045    0.9764 C.3       0 UNK        -0.2020 
      2 C          26.7499   -4.0276    1.0944 C.2       0 UNK         0.4855 
      3 O          25.7686   -3.6773    1.7500 O.2       0 UNK        -0.5197 
      4 N          27.5490   -3.1585    0.4622 N.am      1 UNK        -0.4892 
      5 CA         27.3556   -1.7018    0.4358 C.3       1 UNK         0.0835 
      6 C6         28.6806   -0.9538    0.1359 C.3       12 UNK        -0.0855 
      7 S7         29.4231   -1.3756   -1.4772 S.3       12 UNK        -0.2931 
      8 C8         30.7322   -2.5493   -1.0040 C.3       12 UNK         0.0378 
      9 C9         31.2743   -3.2287   -2.2490 C.ar      12 UNK        -0.0802 
     10 C10        32.4960   -2.8344   -2.8026 C.ar      12 UNK        -0.0944 
     11 C11        32.9406   -3.3862   -4.0087 C.ar      12 UNK        -0.0787 
     12 C12        32.1525   -4.3470   -4.6529 C.ar      12 UNK        -0.0862 
     13 C13        30.9138   -4.7205   -4.1243 C.ar      12 UNK        -0.0733 
     14 C14        30.5014   -4.1945   -2.8985 C.ar      12 UNK        -0.0832 
     15 C15        29.9591   -5.5732   -4.9493 C.3       12 UNK         0.0240 
     16 S16        28.4435   -4.6702   -5.4649 S.3       12 UNK        -0.2522 
     17 C17        28.9061   -2.8957   -5.4364 C.3       12 UNK        -0.0967 
     18 CA         28.3441   -2.0735   -6.6162 C.3       5 UNK         0.0660 
     19 N          26.8895   -2.1157   -6.7008 N.am      5 UNK        -0.4015 
     20 C          26.2077   -1.9760   -7.8437 C.2       4 UNK         0.4946 
     21 O          26.7368   -1.8672   -8.9501 O.2       4 UNK        -0.5353 
     22 CA         24.6756   -1.8840   -7.7226 C.3       4 UNK         0.0277 
     23 CB         24.0564   -3.2871   -7.6218 C.3       4 UNK        -0.1981 
     24 N          24.2465   -1.0734   -6.5799 N.am      4 UNK        -0.4209 
     25 C          24.5979    0.2048   -6.3751 C.2       3 UNK         0.4942 
     26 O          25.2430    0.8723   -7.1835 O.2       3 UNK        -0.5208 
     27 CA         24.2241    0.8303   -5.0205 C.3       3 UNK         0.0250 
     28 CB         22.9219    1.6358   -5.1457 C.3       3 UNK        -0.1990 
     29 N          24.1003   -0.1391   -3.9236 N.am      3 UNK        -0.4232 
     30 C          25.0797   -0.9427   -3.4829 C.2       2 UNK         0.4993 
     31 O          26.2097   -0.9877   -3.9770 O.2       2 UNK        -0.5286 
     32 CA         24.7002   -1.9276   -2.3689 C.3       2 UNK         0.0209 
     33 CB         24.3030   -3.2820   -2.9796 C.3       2 UNK        -0.1931 
     34 N          25.8003   -2.1399   -1.4298 N.am      2 UNK        -0.4546 
     35 C          26.2014   -1.2632   -0.4978 C.2       1 UNK         0.5154 
     36 O          25.6769   -0.1600   -0.3332 O.2       1 UNK        -0.5181 
     37 C          28.8191   -0.6134   -6.5103 C.2       5 UNK         0.5014 
     38 O          29.6626   -0.1897   -7.2991 O.2       5 UNK        -0.5248 
     39 N          28.2982    0.1152   -5.5137 N.am      6 UNK        -0.4434 
     40 CA         28.8278    1.4049   -5.0687 C.3       6 UNK         0.0363 
     41 CB         28.2182    1.7555   -3.7017 C.3       6 UNK        -0.1936 
     42 C          28.6275    2.5701   -6.0496 C.2       6 UNK         0.5081 
     43 O          29.4609    3.4763   -6.0599 O.2       6 UNK        -0.5248 
     44 N          27.5361    2.5562   -6.8256 N.am      7 UNK        -0.4718 
     45 CA         27.1520    3.6551   -7.7139 C.3       7 UNK         0.0273 
     46 CB         25.7977    4.2341   -7.2680 C.3       7 UNK        -0.1935 
     47 C          27.1035    3.2152   -9.1803 C.2       7 UNK         0.5018 
     48 O          27.6681    3.9128  -10.0228 O.2       7 UNK        -0.5186 
     49 N          26.4330    2.0895   -9.4718 N.am      8 UNK        -0.4240 
     50 CA         26.2355    1.6028  -10.8420 C.3       8 UNK         0.0235 
     51 CB         25.0823    0.5899  -10.9022 C.3       8 UNK        -0.2000 
     52 C          27.5294    1.0436  -11.4533 C.2       8 UNK         0.4941 
     53 O          27.9470    1.5205  -12.5095 O.2       8 UNK        -0.5273 
     54 N          28.1653    0.0788  -10.7704 N.am      9 UNK        -0.4262 
     55 CA         29.4982   -0.4198  -11.1355 C.3       9 UNK         0.0264 
     56 CB         29.7275   -1.8047  -10.5114 C.3       9 UNK        -0.1955 
     57 C          30.6281    0.5483  -10.7328 C.2       9 UNK         0.5031 
     58 O          31.7099    0.4781  -11.3176 O.2       9 UNK        -0.5390 
     59 N          30.3539    1.4229   -9.7524 N.am      10 UNK        -0.4204 
     60 CA         31.2413    2.4359   -9.1692 C.3       10 UNK         0.0237 
     61 CB         31.5894    3.5251  -10.2060 C.3       10 UNK        -0.1985 
     62 C          32.4802    1.8269   -8.4822 C.2       10 UNK         0.4970 
     63 O          33.5847    2.3576   -8.6175 O.2       10 UNK        -0.4914 
     64 N          32.2735    0.7162   -7.7645 N.am      11 UNK        -0.4285 
     65 CA         33.2981    0.0088   -6.9884 C.3       11 UNK         0.1007 
     66 C          33.7769    0.8272   -5.7579 C.2       11 UNK         0.5703 
     67 N          35.0643    0.7823   -5.4423 N.am      11 UNK        -0.7361 
     68 O          32.9873    1.4715   -5.0699 O.2       11 UNK        -0.4986 
     69 C69        32.7954   -1.3998   -6.5788 C.3       12 UNK        -0.0947 
     70 S70        34.1523   -2.6128   -6.4311 S.3       12 UNK        -0.2240 
     71 C71        34.2472   -2.8950   -4.6277 C.3       12 UNK         0.0194 
     72 H72        27.2677   -5.9291    1.9650 H         1 UNK         0.0906 
     73 H73        26.2714   -6.0462    0.5123 H         1 UNK         0.0906 
     74 H74        27.9901   -5.6693    0.3765 H         1 UNK         0.0906 
     75 H75        28.3377   -3.4974   -0.0682 H         1 UNK         0.3140 
     76 H76        27.0464   -1.3993    1.4392 H         1 UNK         0.1085 
     77 H77        28.5176    0.1255    0.1621 H         1 UNK         0.0836 
     78 H78        29.4044   -1.1546    0.9275 H         1 UNK         0.0836 
     79 H79        31.5228   -2.0180   -0.4716 H         1 UNK         0.0731 
     80 H80        30.3420   -3.3007   -0.3169 H         1 UNK         0.0731 
     81 H81        33.0832   -2.0700   -2.3119 H         1 UNK         0.1312 
     82 H82        32.4704   -4.7498   -5.6046 H         1 UNK         0.1406 
     83 H83        29.5311   -4.4626   -2.5032 H         1 UNK         0.1631 
     84 H84        29.6698   -6.4533   -4.3735 H         1 UNK         0.0717 
     85 H85        30.4572   -5.9460   -5.8455 H         1 UNK         0.0717 
     86 H86        28.5812   -2.4852   -4.4775 H         1 UNK         0.0934 
     87 H87        29.9906   -2.7943   -5.4566 H         1 UNK         0.0934 
     88 H88        28.7632   -2.4988   -7.5293 H         1 UNK         0.0739 
     89 H89        26.3905   -2.1276   -5.8207 H         1 UNK         0.3093 
     90 H90        24.2929   -1.4064   -8.6254 H         1 UNK         0.0818 
     91 H91        22.9672   -3.2417   -7.6184 H         1 UNK         0.0819 
     92 H92        24.3501   -3.9032   -8.4730 H         1 UNK         0.0819 
     93 H93        24.3747   -3.8084   -6.7178 H         1 UNK         0.0819 
     94 H94        23.7001   -1.5366   -5.8694 H         1 UNK         0.3041 
     95 H95        25.0253    1.5228   -4.7577 H         1 UNK         0.0784 
     96 H96        22.9977    2.3796   -5.9404 H         1 UNK         0.0793 
     97 H97        22.0701    0.9956   -5.3792 H         1 UNK         0.0793 
     98 H98        22.6970    2.1733   -4.2243 H         1 UNK         0.0793 
     99 H99        23.1977   -0.1843   -3.4718 H         1 UNK         0.3024 
    100 H100       23.8499   -1.5268   -1.8121 H         1 UNK         0.1171 
    101 H101       23.4564   -3.1750   -3.6590 H         1 UNK         0.0786 
    102 H102       24.0069   -3.9931   -2.2080 H         1 UNK         0.0786 
    103 H103       25.1229   -3.7257   -3.5469 H         1 UNK         0.0786 
    104 H104       26.3149   -3.0029   -1.5164 H         1 UNK         0.2977 
    105 H105       27.5818   -0.3048   -4.9212 H         1 UNK         0.3127 
    106 H106       29.9052    1.2830   -4.9327 H         1 UNK         0.0770 
    107 H107       27.1378    1.8845   -3.7610 H         1 UNK         0.0814 
    108 H108       28.6376    2.6843   -3.3131 H         1 UNK         0.0814 
    109 H109       28.4188    0.9781   -2.9655 H         1 UNK         0.0814 
    110 H110       26.8964    1.7684   -6.7803 H         1 UNK         0.2983 
    111 H111       27.8823    4.4654   -7.6566 H         1 UNK         0.0947 
    112 H112       25.5064    5.0732   -7.9012 H         1 UNK         0.0806 
    113 H113       25.8453    4.6035   -6.2435 H         1 UNK         0.0806 
    114 H114       24.9970    3.4965   -7.3191 H         1 UNK         0.0806 
    115 H115       25.9779    1.5780   -8.7179 H         1 UNK         0.3000 
    116 H116       25.9353    2.4594  -11.4504 H         1 UNK         0.0850 
    117 H117       24.8543    0.3269  -11.9358 H         1 UNK         0.0810 
    118 H118       24.1715    0.9954  -10.4612 H         1 UNK         0.0810 
    119 H119       25.3235   -0.3341  -10.3842 H         1 UNK         0.0810 
    120 H120       27.7186   -0.3427   -9.9612 H         1 UNK         0.3040 
    121 H121       29.5370   -0.5355  -12.2209 H         1 UNK         0.0766 
    122 H122       30.6629   -2.2395  -10.8658 H         1 UNK         0.0812 
    123 H123       28.9268   -2.4980  -10.7694 H         1 UNK         0.0812 
    124 H124       29.7899   -1.7504   -9.4264 H         1 UNK         0.0812 
    125 H125       29.4524    1.3294   -9.3065 H         1 UNK         0.3205 
    126 H126       30.6677    2.9176   -8.3776 H         1 UNK         0.0754 
    127 H127       32.1376    4.3457   -9.7419 H         1 UNK         0.0769 
    128 H128       30.6880    3.9487  -10.6496 H         1 UNK         0.0769 
    129 H129       32.2097    3.1342  -11.0132 H         1 UNK         0.0769 
    130 H130       31.3202    0.3710   -7.6631 H         1 UNK         0.2981 
    131 H131       34.1481   -0.1143   -7.6629 H         1 UNK         0.0541 
    132 H132       35.7147    0.2422   -5.9912 H         1 UNK         0.3459 
    133 H133       35.3910    1.2989   -4.6412 H         1 UNK         0.3459 
    134 H134       32.1263   -1.7961   -7.3446 H         1 UNK         0.0612 
    135 H135       32.1971   -1.3599   -5.6668 H         1 UNK         0.0612 
    136 H136       35.0263   -3.6318   -4.4298 H         1 UNK         0.0624 
    137 H137       34.5704   -1.9665   -4.1544 H         1 UNK         0.0624 
@<TRIPOS>BOND
     1    1    2 1    
     2    1   72 1    
     3    1   73 1    
     4    1   74 1    
     5    2    3 2    
     6    2    4 am   BACKBONE|DICT|INTERRES
     7    4    5 1    
     8    4   75 1    
     9    5    6 1    
    10    5   35 1    
    11    5   76 1    
    12    6    7 1    
    13    6   77 1    
    14    6   78 1    
    15    7    8 1    
    16    8    9 1    
    17    8   79 1    
    18    8   80 1    
    19    9   10 ar   
    20    9   14 ar   
    21   10   11 ar   
    22   10   81 1    
    23   11   12 ar   
    24   11   71 1    
    25   12   13 ar   
    26   12   82 1    
    27   13   14 ar   
    28   13   15 1    
    29   14   83 1    
    30   15   16 1    
    31   15   84 1    
    32   15   85 1    
    33   16   17 1    
    34   17   18 1    
    35   17   86 1    
    36   17   87 1    
    37   18   19 1    
    38   18   37 1    
    39   18   88 1    
    40   19   20 am   BACKBONE|DICT|INTERRES
    41   19   89 1    
    42   20   21 2    
    43   20   22 1    
    44   22   23 1    
    45   22   24 1    
    46   22   90 1    
    47   23   91 1    
    48   23   92 1    
    49   23   93 1    
    50   24   25 am   BACKBONE|DICT|INTERRES
    51   24   94 1    
    52   25   26 2    
    53   25   27 1    
    54   27   28 1    
    55   27   29 1    
    56   27   95 1    
    57   28   96 1    
    58   28   97 1    
    59   28   98 1    
    60   29   30 am   BACKBONE|DICT|INTERRES
    61   29   99 1    
    62   30   31 2    
    63   30   32 1    
    64   32   33 1    
    65   32   34 1    
    66   32  100 1    
    67   33  101 1    
    68   33  102 1    
    69   33  103 1    
    70   34   35 am   BACKBONE|DICT|INTERRES
    71   34  104 1    
    72   35   36 2    
    73   37   38 2    
    74   37   39 am   BACKBONE|DICT|INTERRES
    75   39   40 1    
    76   39  105 1    
    77   40   41 1    
    78   40   42 1    
    79   40  106 1    
    80   41  107 1    
    81   41  108 1    
    82   41  109 1    
    83   42   43 2    
    84   42   44 am   BACKBONE|DICT|INTERRES
    85   44   45 1    
    86   44  110 1    
    87   45   46 1    
    88   45   47 1    
    89   45  111 1    
    90   46  112 1    
    91   46  113 1    
    92   46  114 1    
    93   47   48 2    
    94   47   49 am   BACKBONE|DICT|INTERRES
    95   49   50 1    
    96   49  115 1    
    97   50   51 1    
    98   50   52 1    
    99   50  116 1    
   100   51  117 1    
   101   51  118 1    
   102   51  119 1    
   103   52   53 2    
   104   52   54 am   BACKBONE|DICT|INTERRES
   105   54   55 1    
   106   54  120 1    
   107   55   56 1    
   108   55   57 1    
   109   55  121 1    
   110   56  122 1    
   111   56  123 1    
   112   56  124 1    
   113   57   58 2    
   114   57   59 am   BACKBONE|DICT|INTERRES
   115   59   60 1    
   116   59  125 1    
   117   60   61 1    
   118   60   62 1    
   119   60  126 1    
   120   61  127 1    
   121   61  128 1    
   122   61  129 1    
   123   62   63 2    
   124   62   64 am   BACKBONE|DICT|INTERRES
   125   64   65 1    
   126   64  130 1    
   127   65   66 1    
   128   65   69 1    
   129   65  131 1    
   130   66   67 am   BACKBONE|DICT|INTERRES
   131   66   68 2    
   132   67  132 1    
   133   67  133 1    
   134   69   70 1    
   135   69  134 1    
   136   69  135 1    
   137   70   71 1    
   138   71  136 1    
   139   71  137 1    
@<TRIPOS>SUBSTRUCTURE
     1 UNK         1 GROUP             0       ****    0 ROOT    
