@<TRIPOS>MOLECULE
3R137
137   139    1
SMALL
USER_CHARGES


@<TRIPOS>ATOM
      1 CA         27.1009   -4.3002    2.3855 C.3       0 UNK        -0.2020 
      2 C          27.2851   -3.5433    1.0792 C.2       0 UNK         0.4855 
      3 O          27.3433   -2.3136    1.0853 O.2       0 UNK        -0.5197 
      4 N          27.3628   -4.2641   -0.0462 N.am      1 UNK        -0.4892 
      5 CA         27.5696   -3.7344   -1.4025 C.3       1 UNK         0.0835 
      6 C6         28.2510   -4.7926   -2.3130 C.3       12 UNK        -0.0855 
      7 S7         29.9037   -5.2663   -1.6878 S.3       12 UNK        -0.2931 
      8 C8         31.0204   -4.7818   -3.0558 C.3       12 UNK         0.0378 
      9 C9         30.9743   -3.3037   -3.4468 C.ar      12 UNK        -0.0802 
     10 C10        31.2097   -2.9440   -4.7787 C.ar      12 UNK        -0.0944 
     11 C11        31.1484   -1.6070   -5.1844 C.ar      12 UNK        -0.0787 
     12 C12        30.8341   -0.6246   -4.2406 C.ar      12 UNK        -0.0862 
     13 C13        30.5919   -0.9644   -2.9103 C.ar      12 UNK        -0.0733 
     14 C14        30.6999   -2.2990   -2.5115 C.ar      12 UNK        -0.0832 
     15 C15        30.1628    0.0979   -1.9125 C.3       12 UNK         0.0240 
     16 S16        28.3551    0.0634   -1.7073 S.3       12 UNK        -0.2522 
     17 C17        27.7847    1.5065   -2.6678 C.3       12 UNK        -0.0967 
     18 CA         27.8084    1.3538   -4.2140 C.3       5 UNK         0.0660 
     19 N          27.3144    0.0624   -4.6963 N.am      5 UNK        -0.4015 
     20 C          27.4976   -0.4110   -5.9392 C.2       4 UNK         0.4946 
     21 O          28.1367    0.1715   -6.8163 O.2       4 UNK        -0.5353 
     22 CA         26.8233   -1.7495   -6.2794 C.3       4 UNK         0.0277 
     23 CB         27.7263   -2.9169   -5.8610 C.3       4 UNK        -0.1981 
     24 N          25.5067   -1.8900   -5.6535 N.am      4 UNK        -0.4209 
     25 C          24.4503   -1.1222   -5.9639 C.2       3 UNK         0.4942 
     26 O          24.4694   -0.2569   -6.8378 O.2       3 UNK        -0.5208 
     27 CA         23.1712   -1.3023   -5.1305 C.3       3 UNK         0.0250 
     28 CB         22.2407   -2.3314   -5.7907 C.3       3 UNK        -0.1990 
     29 N          23.4185   -1.6892   -3.7403 N.am      3 UNK        -0.4232 
     30 C          24.1668   -1.0088   -2.8603 C.2       2 UNK         0.4993 
     31 O          24.7460    0.0469   -3.1254 O.2       2 UNK        -0.5286 
     32 CA         24.3193   -1.6228   -1.4581 C.3       2 UNK         0.0209 
     33 CB         23.2040   -2.6279   -1.0915 C.3       2 UNK        -0.1931 
     34 N          25.6322   -2.2423   -1.2495 N.am      2 UNK        -0.4546 
     35 C          26.2534   -3.1721   -1.9918 C.2       1 UNK         0.5154 
     36 O          25.8190   -3.5971   -3.0654 O.2       1 UNK        -0.5181 
     37 C          27.0300    2.5080   -4.8678 C.2       5 UNK         0.5014 
     38 O          27.6416    3.4908   -5.2871 O.2       5 UNK        -0.5248 
     39 N          25.6988    2.3575   -4.9493 N.am      6 UNK        -0.4434 
     40 CA         24.7864    3.3213   -5.5685 C.3       6 UNK         0.0363 
     41 CB         23.3326    2.9110   -5.2849 C.3       6 UNK        -0.1936 
     42 C          25.0234    3.4843   -7.0796 C.2       6 UNK         0.5081 
     43 O          25.0404    4.6131   -7.5711 O.2       6 UNK        -0.5248 
     44 N          25.2140    2.3614   -7.7853 N.am      7 UNK        -0.4718 
     45 CA         25.5042    2.3290   -9.2206 C.3       7 UNK         0.0273 
     46 CB         25.1884    0.9251   -9.7625 C.3       7 UNK        -0.1935 
     47 C          26.9552    2.7069   -9.5652 C.2       7 UNK         0.5018 
     48 O          27.2049    3.1011  -10.7049 O.2       7 UNK        -0.5186 
     49 N          27.8759    2.5443   -8.6008 N.am      8 UNK        -0.4240 
     50 CA         29.3369    2.6053   -8.7427 C.3       8 UNK         0.0235 
     51 CB         29.8129    4.0296   -9.0969 C.3       8 UNK        -0.2000 
     52 C          29.8283    1.5295   -9.7296 C.2       8 UNK         0.4941 
     53 O          30.4959    1.8388  -10.7200 O.2       8 UNK        -0.5273 
     54 N          29.4275    0.2804   -9.4596 N.am      9 UNK        -0.4262 
     55 CA         29.5734   -0.8869  -10.3328 C.3       9 UNK         0.0264 
     56 CB         28.5981   -1.9782   -9.8520 C.3       9 UNK        -0.1955 
     57 C          31.0231   -1.4025  -10.4613 C.2       9 UNK         0.5031 
     58 O          31.3047   -2.5338  -10.0614 O.2       9 UNK        -0.5390 
     59 N          31.9034   -0.5689  -11.0371 N.am      10 UNK        -0.4204 
     60 CA         33.3130   -0.8304  -11.3716 C.3       10 UNK         0.0237 
     61 CB         33.4101   -1.8358  -12.5388 C.3       10 UNK        -0.1985 
     62 C          34.1439   -1.2539  -10.1448 C.2       10 UNK         0.4970 
     63 O          34.8045   -2.2945  -10.1623 O.2       10 UNK        -0.4914 
     64 N          34.0493   -0.4449   -9.0851 N.am      11 UNK        -0.4285 
     65 CA         34.5405   -0.7542   -7.7331 C.3       11 UNK         0.1007 
     66 C          36.0859   -0.7214   -7.5536 C.2       11 UNK         0.5703 
     67 N          36.8574   -0.2255   -8.5136 N.am      11 UNK        -0.7361 
     68 O          36.5937   -1.1591   -6.5239 O.2       11 UNK        -0.4986 
     69 C69        33.8311    0.1072   -6.6490 C.3       12 UNK        -0.0947 
     70 S70        32.0544    0.3935   -6.9593 S.3       12 UNK        -0.2240 
     71 C71        31.3435   -1.2593   -6.6574 C.3       12 UNK         0.0194 
     72 H72        27.0685   -5.3787    2.2316 H         1 UNK         0.0906 
     73 H73        27.9237   -4.0796    3.0650 H         1 UNK         0.0906 
     74 H74        26.1711   -3.9976    2.8663 H         1 UNK         0.0906 
     75 H75        27.2943   -5.2704    0.0116 H         1 UNK         0.3140 
     76 H76        28.2423   -2.8799   -1.3317 H         1 UNK         0.1085 
     77 H77        28.3555   -4.4248   -3.3322 H         1 UNK         0.0836 
     78 H78        27.6346   -5.6906   -2.3839 H         1 UNK         0.0836 
     79 H79        30.7813   -5.4036   -3.9202 H         1 UNK         0.0731 
     80 H80        32.0436   -5.0306   -2.7720 H         1 UNK         0.0731 
     81 H81        31.4246   -3.7119   -5.5095 H         1 UNK         0.1312 
     82 H82        30.7568    0.4077   -4.5447 H         1 UNK         0.1406 
     83 H83        30.5304   -2.5549   -1.4750 H         1 UNK         0.1631 
     84 H84        30.4947    1.0890   -2.2251 H         1 UNK         0.0717 
     85 H85        30.6329   -0.0940   -0.9469 H         1 UNK         0.0717 
     86 H86        26.7685    1.7081   -2.3222 H         1 UNK         0.0934 
     87 H87        28.3709    2.3774   -2.3685 H         1 UNK         0.0934 
     88 H88        28.8422    1.4518   -4.5430 H         1 UNK         0.0739 
     89 H89        26.7255   -0.4488   -4.0526 H         1 UNK         0.3093 
     90 H90        26.6823   -1.7921   -7.3613 H         1 UNK         0.0818 
     91 H91        28.6411   -2.9334   -6.4530 H         1 UNK         0.0819 
     92 H92        28.0227   -2.8263   -4.8169 H         1 UNK         0.0819 
     93 H93        27.2343   -3.8803   -5.9953 H         1 UNK         0.0819 
     94 H94        25.4223   -2.5607   -4.8962 H         1 UNK         0.3041 
     95 H95        22.6566   -0.3402   -5.1109 H         1 UNK         0.0784 
     96 H96        22.0229   -2.0538   -6.8232 H         1 UNK         0.0793 
     97 H97        22.6863   -3.3269   -5.8077 H         1 UNK         0.0793 
     98 H98        21.2864   -2.3981   -5.2677 H         1 UNK         0.0793 
     99 H99        23.0145   -2.5631   -3.4358 H         1 UNK         0.3024 
    100 H100       24.2544   -0.7869   -0.7594 H         1 UNK         0.1171 
    101 H101       23.2751   -2.9187   -0.0433 H         1 UNK         0.0786 
    102 H102       22.2141   -2.1909   -1.2322 H         1 UNK         0.0786 
    103 H103       23.2555   -3.5414   -1.6852 H         1 UNK         0.0786 
    104 H104       26.1164   -1.9637   -0.3996 H         1 UNK         0.2977 
    105 H105       25.2843    1.5274   -4.5378 H         1 UNK         0.3127 
    106 H106       24.9635    4.2911   -5.0983 H         1 UNK         0.0770 
    107 H107       23.0846    1.9566   -5.7492 H         1 UNK         0.0814 
    108 H108       22.6365    3.6532   -5.6777 H         1 UNK         0.0814 
    109 H109       23.1443    2.8234   -4.2146 H         1 UNK         0.0814 
    110 H110       25.1108    1.4609   -7.3215 H         1 UNK         0.2983 
    111 H111       24.8502    3.0450   -9.7235 H         1 UNK         0.0947 
    112 H112       25.8091    0.1637   -9.2882 H         1 UNK         0.0806 
    113 H113       25.3658    0.8692  -10.8374 H         1 UNK         0.0806 
    114 H114       24.1452    0.6591   -9.5912 H         1 UNK         0.0806 
    115 H115       27.5525    2.1738   -7.7158 H         1 UNK         0.3000 
    116 H116       29.7525    2.3502   -7.7665 H         1 UNK         0.0850 
    117 H117       29.4520    4.7579   -8.3706 H         1 UNK         0.0810 
    118 H118       29.4724    4.3422  -10.0843 H         1 UNK         0.0810 
    119 H119       30.9021    4.0833   -9.0985 H         1 UNK         0.0810 
    120 H120       28.9260    0.1354   -8.5858 H         1 UNK         0.3040 
    121 H121       29.2579   -0.5904  -11.3354 H         1 UNK         0.0766 
    122 H122       28.6352   -2.8515  -10.5046 H         1 UNK         0.0812 
    123 H123       27.5687   -1.6203   -9.8525 H         1 UNK         0.0812 
    124 H124       28.8370   -2.3152   -8.8433 H         1 UNK         0.0812 
    125 H125       31.5603    0.3705  -11.2333 H         1 UNK         0.3205 
    126 H126       33.7319    0.1163  -11.7161 H         1 UNK         0.0754 
    127 H127       34.4456   -1.9715  -12.8535 H         1 UNK         0.0769 
    128 H128       32.8511   -1.4890  -13.4079 H         1 UNK         0.0769 
    129 H129       33.0227   -2.8169  -12.2614 H         1 UNK         0.0769 
    130 H130       33.4779    0.3837   -9.1564 H         1 UNK         0.2981 
    131 H131       34.2610   -1.7917   -7.5422 H         1 UNK         0.0541 
    132 H132       37.8573   -0.2126   -8.3882 H         1 UNK         0.3459 
    133 H133       36.4488    0.1283   -9.3635 H         1 UNK         0.3459 
    134 H134       33.9450   -0.3492   -5.6640 H         1 UNK         0.0612 
    135 H135       34.2992    1.0910   -6.5835 H         1 UNK         0.0612 
    136 H136       31.9560   -2.0119   -7.1544 H         1 UNK         0.0624 
    137 H137       30.3697   -1.2981   -7.1431 H         1 UNK         0.0624 
@<TRIPOS>BOND
     1    1    2 1    
     2    1   72 1    
     3    1   73 1    
     4    1   74 1    
     5    2    3 2    
     6    2    4 am   BACKBONE|DICT|INTERRES
     7    4    5 1    
     8    4   75 1    
     9    5    6 1    
    10    5   35 1    
    11    5   76 1    
    12    6    7 1    
    13    6   77 1    
    14    6   78 1    
    15    7    8 1    
    16    8    9 1    
    17    8   79 1    
    18    8   80 1    
    19    9   10 ar   
    20    9   14 ar   
    21   10   11 ar   
    22   10   81 1    
    23   11   12 ar   
    24   11   71 1    
    25   12   13 ar   
    26   12   82 1    
    27   13   14 ar   
    28   13   15 1    
    29   14   83 1    
    30   15   16 1    
    31   15   84 1    
    32   15   85 1    
    33   16   17 1    
    34   17   18 1    
    35   17   86 1    
    36   17   87 1    
    37   18   19 1    
    38   18   37 1    
    39   18   88 1    
    40   19   20 am   BACKBONE|DICT|INTERRES
    41   19   89 1    
    42   20   21 2    
    43   20   22 1    
    44   22   23 1    
    45   22   24 1    
    46   22   90 1    
    47   23   91 1    
    48   23   92 1    
    49   23   93 1    
    50   24   25 am   BACKBONE|DICT|INTERRES
    51   24   94 1    
    52   25   26 2    
    53   25   27 1    
    54   27   28 1    
    55   27   29 1    
    56   27   95 1    
    57   28   96 1    
    58   28   97 1    
    59   28   98 1    
    60   29   30 am   BACKBONE|DICT|INTERRES
    61   29   99 1    
    62   30   31 2    
    63   30   32 1    
    64   32   33 1    
    65   32   34 1    
    66   32  100 1    
    67   33  101 1    
    68   33  102 1    
    69   33  103 1    
    70   34   35 am   BACKBONE|DICT|INTERRES
    71   34  104 1    
    72   35   36 2    
    73   37   38 2    
    74   37   39 am   BACKBONE|DICT|INTERRES
    75   39   40 1    
    76   39  105 1    
    77   40   41 1    
    78   40   42 1    
    79   40  106 1    
    80   41  107 1    
    81   41  108 1    
    82   41  109 1    
    83   42   43 2    
    84   42   44 am   BACKBONE|DICT|INTERRES
    85   44   45 1    
    86   44  110 1    
    87   45   46 1    
    88   45   47 1    
    89   45  111 1    
    90   46  112 1    
    91   46  113 1    
    92   46  114 1    
    93   47   48 2    
    94   47   49 am   BACKBONE|DICT|INTERRES
    95   49   50 1    
    96   49  115 1    
    97   50   51 1    
    98   50   52 1    
    99   50  116 1    
   100   51  117 1    
   101   51  118 1    
   102   51  119 1    
   103   52   53 2    
   104   52   54 am   BACKBONE|DICT|INTERRES
   105   54   55 1    
   106   54  120 1    
   107   55   56 1    
   108   55   57 1    
   109   55  121 1    
   110   56  122 1    
   111   56  123 1    
   112   56  124 1    
   113   57   58 2    
   114   57   59 am   BACKBONE|DICT|INTERRES
   115   59   60 1    
   116   59  125 1    
   117   60   61 1    
   118   60   62 1    
   119   60  126 1    
   120   61  127 1    
   121   61  128 1    
   122   61  129 1    
   123   62   63 2    
   124   62   64 am   BACKBONE|DICT|INTERRES
   125   64   65 1    
   126   64  130 1    
   127   65   66 1    
   128   65   69 1    
   129   65  131 1    
   130   66   67 am   BACKBONE|DICT|INTERRES
   131   66   68 2    
   132   67  132 1    
   133   67  133 1    
   134   69   70 1    
   135   69  134 1    
   136   69  135 1    
   137   70   71 1    
   138   71  136 1    
   139   71  137 1    
@<TRIPOS>SUBSTRUCTURE
     1 UNK         1 GROUP             0       ****    0 ROOT    
