@<TRIPOS>MOLECULE
3R137
137   139    1
SMALL
USER_CHARGES


@<TRIPOS>ATOM
      1 CA         25.1966   -6.3908   -4.6423 C.3       0 UNK        -0.2020 
      2 C          25.4952   -5.6239   -3.3635 C.2       0 UNK         0.4855 
      3 O          24.5691   -5.1663   -2.6931 O.2       0 UNK        -0.5197 
      4 N          26.7827   -5.4666   -3.0273 N.am      1 UNK        -0.4892 
      5 CA         27.2793   -4.7248   -1.8625 C.3       1 UNK         0.0835 
      6 C6         28.8149   -4.8713   -1.7384 C.3       12 UNK        -0.0855 
      7 S7         29.4392   -4.3586   -0.1030 S.3       12 UNK        -0.2931 
      8 C8         31.1339   -3.8263   -0.5126 C.3       12 UNK         0.0378 
      9 C9         31.1581   -2.5770   -1.3838 C.ar      12 UNK        -0.0802 
     10 C10        31.6531   -2.6332   -2.6900 C.ar      12 UNK        -0.0944 
     11 C11        31.6828   -1.4862   -3.4894 C.ar      12 UNK        -0.0787 
     12 C12        31.2248   -0.2724   -2.9680 C.ar      12 UNK        -0.0862 
     13 C13        30.7208   -0.2029   -1.6632 C.ar      12 UNK        -0.0733 
     14 C14        30.6972   -1.3591   -0.8773 C.ar      12 UNK        -0.0832 
     15 C15        30.2102    1.1089   -1.0719 C.3       12 UNK         0.0240 
     16 S16        29.2199    2.1231   -2.2209 S.3       12 UNK        -0.2522 
     17 C17        27.9158    0.9649   -2.7636 C.3       12 UNK        -0.0967 
     18 CA         27.8561    0.8538   -4.3097 C.3       5 UNK         0.0660 
     19 N          27.3899   -0.4708   -4.7429 N.am      5 UNK        -0.4015 
     20 C          27.3035   -0.9085   -6.0093 C.2       4 UNK         0.4946 
     21 O          27.6545   -0.2470   -6.9840 O.2       4 UNK        -0.5353 
     22 CA         26.6328   -2.2743   -6.2334 C.3       4 UNK         0.0277 
     23 CB         27.6375   -3.4288   -6.1049 C.3       4 UNK        -0.1981 
     24 N          25.5236   -2.4722   -5.2981 N.am      4 UNK        -0.4209 
     25 C          24.2921   -1.9714   -5.4769 C.2       3 UNK         0.4942 
     26 O          23.9353   -1.3943   -6.5030 O.2       3 UNK        -0.5208 
     27 CA         23.2908   -2.1086   -4.3161 C.3       3 UNK         0.0250 
     28 CB         22.3548   -3.3068   -4.5409 C.3       3 UNK        -0.1990 
     29 N          23.9456   -2.2261   -3.0098 N.am      3 UNK        -0.4232 
     30 C          24.5291   -1.1980   -2.3735 C.2       2 UNK         0.4993 
     31 O          24.5282   -0.0440   -2.8022 O.2       2 UNK        -0.5286 
     32 CA         25.2875   -1.5114   -1.0688 C.3       2 UNK         0.0209 
     33 CB         24.3520   -1.3767    0.1427 C.3       2 UNK        -0.1931 
     34 N          25.9191   -2.8362   -1.0541 N.am      2 UNK        -0.4546 
     35 C          26.8374   -3.2485   -1.9390 C.2       1 UNK         0.5154 
     36 O          27.2690   -2.5340   -2.8446 O.2       1 UNK        -0.5181 
     37 C          27.0522    2.0281   -4.9182 C.2       5 UNK         0.5014 
     38 O          27.5923    3.1266   -5.0528 O.2       5 UNK        -0.5248 
     39 N          25.7976    1.7811   -5.3257 N.am      6 UNK        -0.4434 
     40 CA         24.9656    2.7166   -6.0910 C.3       6 UNK         0.0363 
     41 CB         23.5602    2.1198   -6.2619 C.3       6 UNK        -0.1936 
     42 C          25.5598    3.1046   -7.4629 C.2       6 UNK         0.5081 
     43 O          25.2015    4.1567   -7.9930 O.2       6 UNK        -0.5248 
     44 N          26.4661    2.2771   -7.9990 N.am      7 UNK        -0.4718 
     45 CA         27.2667    2.5433   -9.1891 C.3       7 UNK         0.0273 
     46 CB         26.6713    1.7771  -10.3855 C.3       7 UNK        -0.1935 
     47 C          28.7201    2.1498   -8.8829 C.2       7 UNK         0.5018 
     48 O          29.2843    1.3032   -9.5758 O.2       7 UNK        -0.5186 
     49 N          29.2879    2.7466   -7.8210 N.am      8 UNK        -0.4240 
     50 CA         30.6034    2.4228   -7.2484 C.3       8 UNK         0.0235 
     51 CB         30.8896    3.3385   -6.0469 C.3       8 UNK        -0.2000 
     52 C          31.7900    2.4616   -8.2282 C.2       8 UNK         0.4941 
     53 O          32.7574    1.7312   -8.0107 O.2       8 UNK        -0.5273 
     54 N          31.6987    3.2712   -9.2933 N.am      9 UNK        -0.4262 
     55 CA         32.6459    3.3083  -10.4110 C.3       9 UNK         0.0264 
     56 CB         32.2720    4.4672  -11.3518 C.3       9 UNK        -0.1955 
     57 C          32.6677    1.9573  -11.1522 C.2       9 UNK         0.5031 
     58 O          31.7661    1.6842  -11.9458 O.2       9 UNK        -0.5390 
     59 N          33.6706    1.1297  -10.8238 N.am      10 UNK        -0.4204 
     60 CA         33.8371   -0.2820  -11.2018 C.3       10 UNK         0.0237 
     61 CB         33.8934   -0.4663  -12.7343 C.3       10 UNK        -0.1985 
     62 C          32.8314   -1.2379  -10.5203 C.2       10 UNK         0.4970 
     63 O          32.7278   -2.3908  -10.9413 O.2       10 UNK        -0.4914 
     64 N          32.1582   -0.7656   -9.4606 N.am      11 UNK        -0.4285 
     65 CA         31.2231   -1.4996   -8.5944 C.3       11 UNK         0.1007 
     66 C          30.0668   -2.2079   -9.3626 C.2       11 UNK         0.5703 
     67 N          29.2453   -1.4556  -10.0803 N.am      11 UNK        -0.7361 
     68 O          29.9124   -3.4271   -9.3269 O.2       11 UNK        -0.4986 
     69 C69        31.9809   -2.4086   -7.5845 C.3       12 UNK        -0.0947 
     70 S70        31.1129   -2.5221   -5.9858 S.3       12 UNK        -0.2240 
     71 C71        32.2204   -1.5610   -4.9107 C.3       12 UNK         0.0194 
     72 H72        24.4565   -7.1671   -4.4500 H         1 UNK         0.0906 
     73 H73        24.7961   -5.7174   -5.3995 H         1 UNK         0.0906 
     74 H74        26.0879   -6.8680   -5.0492 H         1 UNK         0.0906 
     75 H75        27.4958   -5.8531   -3.6293 H         1 UNK         0.3140 
     76 H76        26.8229   -5.1801   -0.9807 H         1 UNK         0.1085 
     77 H77        29.3186   -4.3168   -2.5323 H         1 UNK         0.0836 
     78 H78        29.1029   -5.9151   -1.8743 H         1 UNK         0.0836 
     79 H79        31.6601   -4.6509   -0.9965 H         1 UNK         0.0731 
     80 H80        31.6726   -3.6228    0.4139 H         1 UNK         0.0731 
     81 H81        32.0103   -3.5713   -3.0926 H         1 UNK         0.1312 
     82 H82        31.2543    0.6183   -3.5801 H         1 UNK         0.1406 
     83 H83        30.3149   -1.3182    0.1339 H         1 UNK         0.1631 
     84 H84        31.0661    1.6964   -0.7378 H         1 UNK         0.0717 
     85 H85        29.6032    0.9170   -0.1857 H         1 UNK         0.0717 
     86 H86        28.1164   -0.0124   -2.3236 H         1 UNK         0.0934 
     87 H87        26.9579    1.2791   -2.3440 H         1 UNK         0.0934 
     88 H88        28.8713    0.9359   -4.7035 H         1 UNK         0.0739 
     89 H89        27.1729   -1.1330   -4.0010 H         1 UNK         0.3093 
     90 H90        26.2418   -2.2895   -7.2533 H         1 UNK         0.0818 
     91 H91        28.1513   -3.4250   -5.1434 H         1 UNK         0.0819 
     92 H92        27.1507   -4.3962   -6.2247 H         1 UNK         0.0819 
     93 H93        28.3999   -3.3571   -6.8807 H         1 UNK         0.0819 
     94 H94        25.7577   -2.8799   -4.4027 H         1 UNK         0.3041 
     95 H95        22.6778   -1.2044   -4.3085 H         1 UNK         0.0784 
     96 H96        21.8076   -3.2009   -5.4787 H         1 UNK         0.0793 
     97 H97        22.9007   -4.2483   -4.5899 H         1 UNK         0.0793 
     98 H98        21.6162   -3.3886   -3.7433 H         1 UNK         0.0793 
     99 H99        24.0226   -3.1601   -2.6183 H         1 UNK         0.3024 
    100 H100       26.0816   -0.7685   -0.9703 H         1 UNK         0.1171 
    101 H101       24.8953   -1.4993    1.0799 H         1 UNK         0.0786 
    102 H102       23.8859   -0.3905    0.1677 H         1 UNK         0.0786 
    103 H103       23.5501   -2.1158    0.1188 H         1 UNK         0.0786 
    104 H104       25.5817   -3.4906   -0.3624 H         1 UNK         0.2977 
    105 H105       25.4077    0.8667   -5.1446 H         1 UNK         0.3127 
    106 H106       24.8800    3.6328   -5.5033 H         1 UNK         0.0770 
    107 H107       23.5781    1.2212   -6.8792 H         1 UNK         0.0814 
    108 H108       22.8921    2.8324   -6.7473 H         1 UNK         0.0814 
    109 H109       23.1154    1.8607   -5.3008 H         1 UNK         0.0814 
    110 H110       26.7267    1.4326   -7.4940 H         1 UNK         0.2983 
    111 H111       27.2664    3.6104   -9.4221 H         1 UNK         0.0947 
    112 H112       27.2542    1.9512  -11.2908 H         1 UNK         0.0806 
    113 H113       25.6492    2.0956  -10.5902 H         1 UNK         0.0806 
    114 H114       26.6577    0.7012  -10.2053 H         1 UNK         0.0806 
    115 H115       28.7210    3.3912   -7.2861 H         1 UNK         0.3000 
    116 H116       30.5364    1.3981   -6.8777 H         1 UNK         0.0850 
    117 H117       31.8775    3.1402   -5.6282 H         1 UNK         0.0810 
    118 H118       30.1727    3.1817   -5.2423 H         1 UNK         0.0810 
    119 H119       30.8591    4.3923   -6.3258 H         1 UNK         0.0810 
    120 H120       30.8508    3.8070   -9.4041 H         1 UNK         0.3040 
    121 H121       33.6413    3.5093  -10.0090 H         1 UNK         0.0766 
    122 H122       32.9564    4.5154  -12.1999 H         1 UNK         0.0812 
    123 H123       31.2640    4.3554  -11.7535 H         1 UNK         0.0812 
    124 H124       32.3242    5.4278  -10.8391 H         1 UNK         0.0812 
    125 H125       34.3252    1.4593  -10.1258 H         1 UNK         0.3205 
    126 H126       34.8143   -0.5700  -10.8116 H         1 UNK         0.0754 
    127 H127       34.2109   -1.4767  -12.9945 H         1 UNK         0.0769 
    128 H128       34.6036    0.2222  -13.1922 H         1 UNK         0.0769 
    129 H129       32.9207   -0.3064  -13.2000 H         1 UNK         0.0769 
    130 H130       32.3364    0.1908   -9.1753 H         1 UNK         0.2981 
    131 H131       30.7338   -0.7147   -8.0167 H         1 UNK         0.0541 
    132 H132       28.4946   -1.8874  -10.5924 H         1 UNK         0.3459 
    133 H133       29.3235   -0.4399  -10.0427 H         1 UNK         0.3459 
    134 H134       32.1394   -3.4114   -7.9841 H         1 UNK         0.0612 
    135 H135       32.9808   -2.0139   -7.3972 H         1 UNK         0.0612 
    136 H136       33.2078   -2.0247   -4.8997 H         1 UNK         0.0624 
    137 H137       32.3463   -0.5618   -5.3316 H         1 UNK         0.0624 
@<TRIPOS>BOND
     1    1    2 1    
     2    1   72 1    
     3    1   73 1    
     4    1   74 1    
     5    2    3 2    
     6    2    4 am   BACKBONE|DICT|INTERRES
     7    4    5 1    
     8    4   75 1    
     9    5    6 1    
    10    5   35 1    
    11    5   76 1    
    12    6    7 1    
    13    6   77 1    
    14    6   78 1    
    15    7    8 1    
    16    8    9 1    
    17    8   79 1    
    18    8   80 1    
    19    9   10 ar   
    20    9   14 ar   
    21   10   11 ar   
    22   10   81 1    
    23   11   12 ar   
    24   11   71 1    
    25   12   13 ar   
    26   12   82 1    
    27   13   14 ar   
    28   13   15 1    
    29   14   83 1    
    30   15   16 1    
    31   15   84 1    
    32   15   85 1    
    33   16   17 1    
    34   17   18 1    
    35   17   86 1    
    36   17   87 1    
    37   18   19 1    
    38   18   37 1    
    39   18   88 1    
    40   19   20 am   BACKBONE|DICT|INTERRES
    41   19   89 1    
    42   20   21 2    
    43   20   22 1    
    44   22   23 1    
    45   22   24 1    
    46   22   90 1    
    47   23   91 1    
    48   23   92 1    
    49   23   93 1    
    50   24   25 am   BACKBONE|DICT|INTERRES
    51   24   94 1    
    52   25   26 2    
    53   25   27 1    
    54   27   28 1    
    55   27   29 1    
    56   27   95 1    
    57   28   96 1    
    58   28   97 1    
    59   28   98 1    
    60   29   30 am   BACKBONE|DICT|INTERRES
    61   29   99 1    
    62   30   31 2    
    63   30   32 1    
    64   32   33 1    
    65   32   34 1    
    66   32  100 1    
    67   33  101 1    
    68   33  102 1    
    69   33  103 1    
    70   34   35 am   BACKBONE|DICT|INTERRES
    71   34  104 1    
    72   35   36 2    
    73   37   38 2    
    74   37   39 am   BACKBONE|DICT|INTERRES
    75   39   40 1    
    76   39  105 1    
    77   40   41 1    
    78   40   42 1    
    79   40  106 1    
    80   41  107 1    
    81   41  108 1    
    82   41  109 1    
    83   42   43 2    
    84   42   44 am   BACKBONE|DICT|INTERRES
    85   44   45 1    
    86   44  110 1    
    87   45   46 1    
    88   45   47 1    
    89   45  111 1    
    90   46  112 1    
    91   46  113 1    
    92   46  114 1    
    93   47   48 2    
    94   47   49 am   BACKBONE|DICT|INTERRES
    95   49   50 1    
    96   49  115 1    
    97   50   51 1    
    98   50   52 1    
    99   50  116 1    
   100   51  117 1    
   101   51  118 1    
   102   51  119 1    
   103   52   53 2    
   104   52   54 am   BACKBONE|DICT|INTERRES
   105   54   55 1    
   106   54  120 1    
   107   55   56 1    
   108   55   57 1    
   109   55  121 1    
   110   56  122 1    
   111   56  123 1    
   112   56  124 1    
   113   57   58 2    
   114   57   59 am   BACKBONE|DICT|INTERRES
   115   59   60 1    
   116   59  125 1    
   117   60   61 1    
   118   60   62 1    
   119   60  126 1    
   120   61  127 1    
   121   61  128 1    
   122   61  129 1    
   123   62   63 2    
   124   62   64 am   BACKBONE|DICT|INTERRES
   125   64   65 1    
   126   64  130 1    
   127   65   66 1    
   128   65   69 1    
   129   65  131 1    
   130   66   67 am   BACKBONE|DICT|INTERRES
   131   66   68 2    
   132   67  132 1    
   133   67  133 1    
   134   69   70 1    
   135   69  134 1    
   136   69  135 1    
   137   70   71 1    
   138   71  136 1    
   139   71  137 1    
@<TRIPOS>SUBSTRUCTURE
     1 UNK         1 GROUP             0       ****    0 ROOT    
