@<TRIPOS>MOLECULE
3R137
137   139    1
SMALL
USER_CHARGES


@<TRIPOS>ATOM
      1 CA         24.7837   -6.7616    0.4266 C.3       0 UNK        -0.2020 
      2 C          25.5073   -5.4511    0.1499 C.2       0 UNK         0.4855 
      3 O          25.2856   -4.4660    0.8557 O.2       0 UNK        -0.5197 
      4 N          26.3601   -5.4219   -0.8817 N.am      1 UNK        -0.4892 
      5 CA         27.1816   -4.2757   -1.3013 C.3       1 UNK         0.0835 
      6 C6         28.4487   -4.7524   -2.0686 C.3       12 UNK        -0.0855 
      7 S7         29.7629   -5.2474   -0.9034 S.3       12 UNK        -0.2931 
      8 C8         31.2767   -4.6448   -1.7403 C.3       12 UNK         0.0378 
      9 C9         31.3164   -3.1511   -2.0835 C.ar      12 UNK        -0.0802 
     10 C10        32.1464   -2.7306   -3.1277 C.ar      12 UNK        -0.0944 
     11 C11        32.2238   -1.3812   -3.4858 C.ar      12 UNK        -0.0787 
     12 C12        31.4423   -0.4420   -2.8076 C.ar      12 UNK        -0.0862 
     13 C13        30.6062   -0.8421   -1.7621 C.ar      12 UNK        -0.0733 
     14 C14        30.5665   -2.1917   -1.3893 C.ar      12 UNK        -0.0832 
     15 C15        29.7503    0.1790   -1.0261 C.3       12 UNK         0.0240 
     16 S16        27.9823   -0.1592   -1.2756 S.3       12 UNK        -0.2522 
     17 C17        27.4073    1.2419   -2.2873 C.3       12 UNK        -0.0967 
     18 CA         27.8147    1.2218   -3.7862 C.3       5 UNK         0.0660 
     19 N          27.6512   -0.0818   -4.4433 N.am      5 UNK        -0.4015 
     20 C          28.0059   -0.3429   -5.7133 C.2       4 UNK         0.4946 
     21 O          28.5432    0.4712   -6.4643 O.2       4 UNK        -0.5353 
     22 CA         27.6524   -1.7271   -6.2687 C.3       4 UNK         0.0277 
     23 CB         28.7280   -2.7573   -5.8892 C.3       4 UNK        -0.1981 
     24 N          26.3337   -2.1665   -5.8134 N.am      4 UNK        -0.4209 
     25 C          25.1761   -1.6704   -6.2718 C.2       3 UNK         0.4942 
     26 O          25.1008   -0.8267   -7.1642 O.2       3 UNK        -0.5208 
     27 CA         23.8839   -2.1656   -5.5986 C.3       3 UNK         0.0250 
     28 CB         23.4371   -3.5057   -6.2026 C.3       3 UNK        -0.1990 
     29 N          23.9983   -2.2958   -4.1440 N.am      3 UNK        -0.4232 
     30 C          24.2408   -1.2748   -3.3121 C.2       2 UNK         0.4993 
     31 O          24.3643   -0.1066   -3.6796 O.2       2 UNK        -0.5286 
     32 CA         24.4202   -1.6103   -1.8227 C.3       2 UNK         0.0209 
     33 CB         23.0524   -1.7184   -1.1302 C.3       2 UNK        -0.1931 
     34 N          25.2201   -2.8023   -1.5020 N.am      2 UNK        -0.4546 
     35 C          26.3695   -3.2019   -2.0633 C.2       1 UNK         0.5154 
     36 O          26.8066   -2.7364   -3.1142 O.2       1 UNK        -0.5181 
     37 C          27.0503    2.3342   -4.5362 C.2       5 UNK         0.5014 
     38 O          27.6074    3.4084   -4.7651 O.2       5 UNK        -0.5248 
     39 N          25.7917    2.0472   -4.9030 N.am      6 UNK        -0.4434 
     40 CA         24.9165    2.9363   -5.6661 C.3       6 UNK         0.0363 
     41 CB         23.4784    2.3947   -5.6319 C.3       6 UNK        -0.1936 
     42 C          25.3816    3.1385   -7.1165 C.2       6 UNK         0.5081 
     43 O          25.3306    4.2664   -7.6083 O.2       6 UNK        -0.5248 
     44 N          25.8151    2.0556   -7.7787 N.am      7 UNK        -0.4718 
     45 CA         26.3134    2.0862   -9.1561 C.3       7 UNK         0.0273 
     46 CB         26.4343    0.6552   -9.7030 C.3       7 UNK        -0.1935 
     47 C          27.6524    2.8238   -9.2968 C.2       7 UNK         0.5018 
     48 O          27.8297    3.5574  -10.2700 O.2       7 UNK        -0.5186 
     49 N          28.5741    2.5929   -8.3487 N.am      8 UNK        -0.4240 
     50 CA         29.9463    3.1117   -8.2447 C.3       8 UNK         0.0235 
     51 CB         29.9698    4.6476   -8.1309 C.3       8 UNK        -0.2000 
     52 C          30.8902    2.6126   -9.3526 C.2       8 UNK         0.4941 
     53 O          31.9668    2.1047   -9.0451 O.2       8 UNK        -0.5273 
     54 N          30.4599    2.7081  -10.6169 N.am      9 UNK        -0.4262 
     55 CA         31.1600    2.2150  -11.8082 C.3       9 UNK         0.0264 
     56 CB         30.4226    2.7157  -13.0609 C.3       9 UNK        -0.1955 
     57 C          31.3190    0.6827  -11.8523 C.2       9 UNK         0.5031 
     58 O          32.1567    0.1854  -12.6049 O.2       9 UNK        -0.5390 
     59 N          30.5238   -0.0349  -11.0473 N.am      10 UNK        -0.4204 
     60 CA         30.6214   -1.4776  -10.8278 C.3       10 UNK         0.0237 
     61 CB         29.3594   -1.9516  -10.0892 C.3       10 UNK        -0.1985 
     62 C          31.8812   -1.8914  -10.0430 C.2       10 UNK         0.4970 
     63 O          32.3244   -3.0313  -10.1893 O.2       10 UNK        -0.4914 
     64 N          32.4197   -0.9843   -9.2180 N.am      11 UNK        -0.4285 
     65 CA         33.6274   -1.2025   -8.4130 C.3       11 UNK         0.1007 
     66 C          34.9210   -1.1455   -9.2693 C.2       11 UNK         0.5703 
     67 N          35.9554   -1.8837   -8.8752 N.am      11 UNK        -0.7361 
     68 O          35.0127   -0.4159  -10.2591 O.2       11 UNK        -0.4986 
     69 C69        33.6976   -0.2055   -7.2293 C.3       12 UNK        -0.0947 
     70 S70        32.2934   -0.4127   -6.0814 S.3       12 UNK        -0.2240 
     71 C71        33.1773   -0.9364   -4.5831 C.3       12 UNK         0.0194 
     72 H72        23.7041   -6.6095    0.3985 H         1 UNK         0.0906 
     73 H73        25.0363   -7.5304   -0.3049 H         1 UNK         0.0906 
     74 H74        25.0494   -7.1331    1.4174 H         1 UNK         0.0906 
     75 H75        26.4845   -6.2607   -1.4320 H         1 UNK         0.3140 
     76 H76        27.5171   -3.7559   -0.3995 H         1 UNK         0.1085 
     77 H77        28.8565   -3.9717   -2.7099 H         1 UNK         0.0836 
     78 H78        28.2188   -5.5835   -2.7383 H         1 UNK         0.0836 
     79 H79        31.4056   -5.2308   -2.6526 H         1 UNK         0.0731 
     80 H80        32.1341   -4.8743   -1.1052 H         1 UNK         0.0731 
     81 H81        32.7449   -3.4583   -3.6593 H         1 UNK         0.1312 
     82 H82        31.4919    0.6000   -3.0943 H         1 UNK         0.1406 
     83 H83        29.9276   -2.4906   -0.5701 H         1 UNK         0.1631 
     84 H84        29.9884    1.1961   -1.3405 H         1 UNK         0.0717 
     85 H85        29.9721    0.1270    0.0403 H         1 UNK         0.0717 
     86 H86        26.3206    1.2536   -2.1906 H         1 UNK         0.0934 
     87 H87        27.7494    2.1664   -1.8197 H         1 UNK         0.0934 
     88 H88        28.8783    1.4613   -3.8448 H         1 UNK         0.0739 
     89 H89        27.2506   -0.8284   -3.8855 H         1 UNK         0.3093 
     90 H90        27.6246   -1.6562   -7.3570 H         1 UNK         0.0818 
     91 H91        28.8590   -2.8307   -4.8099 H         1 UNK         0.0819 
     92 H92        28.4833   -3.7488   -6.2687 H         1 UNK         0.0819 
     93 H93        29.6949   -2.4764   -6.3097 H         1 UNK         0.0819 
     94 H94        26.3193   -2.7510   -4.9829 H         1 UNK         0.3041 
     95 H95        23.1078   -1.4253   -5.8021 H         1 UNK         0.0784 
     96 H96        23.3278   -3.4267   -7.2849 H         1 UNK         0.0793 
     97 H97        24.1575   -4.3000   -6.0046 H         1 UNK         0.0793 
     98 H98        22.4728   -3.8195   -5.8033 H         1 UNK         0.0793 
     99 H99        23.9363   -3.2252   -3.7546 H         1 UNK         0.3024 
    100 H100       24.9486   -0.7639   -1.3806 H         1 UNK         0.1171 
    101 H101       23.1609   -1.7999   -0.0486 H         1 UNK         0.0786 
    102 H102       22.4419   -0.8357   -1.3268 H         1 UNK         0.0786 
    103 H103       22.4926   -2.5878   -1.4767 H         1 UNK         0.0786 
    104 H104       24.9753   -3.2776   -0.6366 H         1 UNK         0.2977 
    105 H105       25.3858    1.1612   -4.6068 H         1 UNK         0.3127 
    106 H106       24.9235    3.9125   -5.1765 H         1 UNK         0.0770 
    107 H107       23.4118    1.4004   -6.0756 H         1 UNK         0.0814 
    108 H108       22.8012    3.0469   -6.1847 H         1 UNK         0.0814 
    109 H109       23.1046    2.3289   -4.6101 H         1 UNK         0.0814 
    110 H110       25.7700    1.1476   -7.3279 H         1 UNK         0.2983 
    111 H111       25.5811    2.6199   -9.7661 H         1 UNK         0.0947 
    112 H112       26.8125    0.6550  -10.7261 H         1 UNK         0.0806 
    113 H113       25.4658    0.1557   -9.7178 H         1 UNK         0.0806 
    114 H114       27.1119    0.0496   -9.1009 H         1 UNK         0.0806 
    115 H115       28.3405    1.9123   -7.6262 H         1 UNK         0.3000 
    116 H116       30.3323    2.7102   -7.3058 H         1 UNK         0.0850 
    117 H117       30.9843    5.0078   -7.9555 H         1 UNK         0.0810 
    118 H118       29.3554    4.9887   -7.2976 H         1 UNK         0.0810 
    119 H119       29.6054    5.1337   -9.0360 H         1 UNK         0.0810 
    120 H120       29.5420    3.1276  -10.7565 H         1 UNK         0.3040 
    121 H121       32.1644    2.6431  -11.8030 H         1 UNK         0.0766 
    122 H122       30.3804    3.8046  -13.0877 H         1 UNK         0.0812 
    123 H123       29.3998    2.3387  -13.1041 H         1 UNK         0.0812 
    124 H124       30.9295    2.3904  -13.9703 H         1 UNK         0.0812 
    125 H125       29.8595    0.4682  -10.4797 H         1 UNK         0.3205 
    126 H126       30.6602   -1.9697  -11.8014 H         1 UNK         0.0754 
    127 H127       29.3835   -3.0295   -9.9260 H         1 UNK         0.0769 
    128 H128       28.4563   -1.7315  -10.6588 H         1 UNK         0.0769 
    129 H129       29.2674   -1.4771   -9.1122 H         1 UNK         0.0769 
    130 H130       32.0425   -0.0453   -9.1863 H         1 UNK         0.2981 
    131 H131       33.5624   -2.2085   -7.9927 H         1 UNK         0.0541 
    132 H132       35.8993   -2.4760   -8.0576 H         1 UNK         0.3459 
    133 H133       36.8099   -1.8505   -9.4090 H         1 UNK         0.3459 
    134 H134       34.6317   -0.3326   -6.6793 H         1 UNK         0.0612 
    135 H135       33.7048    0.8243   -7.5882 H         1 UNK         0.0612 
    136 H136       33.7897   -0.1094   -4.2199 H         1 UNK         0.0624 
    137 H137       33.8654   -1.7443   -4.8383 H         1 UNK         0.0624 
@<TRIPOS>BOND
     1    1    2 1    
     2    1   72 1    
     3    1   73 1    
     4    1   74 1    
     5    2    3 2    
     6    2    4 am   BACKBONE|DICT|INTERRES
     7    4    5 1    
     8    4   75 1    
     9    5    6 1    
    10    5   35 1    
    11    5   76 1    
    12    6    7 1    
    13    6   77 1    
    14    6   78 1    
    15    7    8 1    
    16    8    9 1    
    17    8   79 1    
    18    8   80 1    
    19    9   10 ar   
    20    9   14 ar   
    21   10   11 ar   
    22   10   81 1    
    23   11   12 ar   
    24   11   71 1    
    25   12   13 ar   
    26   12   82 1    
    27   13   14 ar   
    28   13   15 1    
    29   14   83 1    
    30   15   16 1    
    31   15   84 1    
    32   15   85 1    
    33   16   17 1    
    34   17   18 1    
    35   17   86 1    
    36   17   87 1    
    37   18   19 1    
    38   18   37 1    
    39   18   88 1    
    40   19   20 am   BACKBONE|DICT|INTERRES
    41   19   89 1    
    42   20   21 2    
    43   20   22 1    
    44   22   23 1    
    45   22   24 1    
    46   22   90 1    
    47   23   91 1    
    48   23   92 1    
    49   23   93 1    
    50   24   25 am   BACKBONE|DICT|INTERRES
    51   24   94 1    
    52   25   26 2    
    53   25   27 1    
    54   27   28 1    
    55   27   29 1    
    56   27   95 1    
    57   28   96 1    
    58   28   97 1    
    59   28   98 1    
    60   29   30 am   BACKBONE|DICT|INTERRES
    61   29   99 1    
    62   30   31 2    
    63   30   32 1    
    64   32   33 1    
    65   32   34 1    
    66   32  100 1    
    67   33  101 1    
    68   33  102 1    
    69   33  103 1    
    70   34   35 am   BACKBONE|DICT|INTERRES
    71   34  104 1    
    72   35   36 2    
    73   37   38 2    
    74   37   39 am   BACKBONE|DICT|INTERRES
    75   39   40 1    
    76   39  105 1    
    77   40   41 1    
    78   40   42 1    
    79   40  106 1    
    80   41  107 1    
    81   41  108 1    
    82   41  109 1    
    83   42   43 2    
    84   42   44 am   BACKBONE|DICT|INTERRES
    85   44   45 1    
    86   44  110 1    
    87   45   46 1    
    88   45   47 1    
    89   45  111 1    
    90   46  112 1    
    91   46  113 1    
    92   46  114 1    
    93   47   48 2    
    94   47   49 am   BACKBONE|DICT|INTERRES
    95   49   50 1    
    96   49  115 1    
    97   50   51 1    
    98   50   52 1    
    99   50  116 1    
   100   51  117 1    
   101   51  118 1    
   102   51  119 1    
   103   52   53 2    
   104   52   54 am   BACKBONE|DICT|INTERRES
   105   54   55 1    
   106   54  120 1    
   107   55   56 1    
   108   55   57 1    
   109   55  121 1    
   110   56  122 1    
   111   56  123 1    
   112   56  124 1    
   113   57   58 2    
   114   57   59 am   BACKBONE|DICT|INTERRES
   115   59   60 1    
   116   59  125 1    
   117   60   61 1    
   118   60   62 1    
   119   60  126 1    
   120   61  127 1    
   121   61  128 1    
   122   61  129 1    
   123   62   63 2    
   124   62   64 am   BACKBONE|DICT|INTERRES
   125   64   65 1    
   126   64  130 1    
   127   65   66 1    
   128   65   69 1    
   129   65  131 1    
   130   66   67 am   BACKBONE|DICT|INTERRES
   131   66   68 2    
   132   67  132 1    
   133   67  133 1    
   134   69   70 1    
   135   69  134 1    
   136   69  135 1    
   137   70   71 1    
   138   71  136 1    
   139   71  137 1    
@<TRIPOS>SUBSTRUCTURE
     1 UNK         1 GROUP             0       ****    0 ROOT    
