@<TRIPOS>MOLECULE
3R137
137   139    1
SMALL
USER_CHARGES


@<TRIPOS>ATOM
      1 CA         25.1474   -5.0475   -8.0321 C.3       0 UNK        -0.2020 
      2 C          25.0543   -5.2537   -6.5281 C.2       0 UNK         0.4855 
      3 O          24.6208   -6.3149   -6.0799 O.2       0 UNK        -0.5197 
      4 N          25.4625   -4.2464   -5.7458 N.am      1 UNK        -0.4892 
      5 CA         25.5102   -4.2758   -4.2757 C.3       1 UNK         0.0835 
      6 C6         26.3077   -3.0799   -3.6942 C.3       12 UNK        -0.0855 
      7 S7         27.8813   -2.7502   -4.5453 S.3       12 UNK        -0.2931 
      8 C8         29.1040   -3.5678   -3.4749 C.3       12 UNK         0.0378 
      9 C9         30.4512   -2.9061   -3.6965 C.ar      12 UNK        -0.0802 
     10 C10        31.2043   -3.2092   -4.8329 C.ar      12 UNK        -0.0944 
     11 C11        32.3427   -2.4641   -5.1523 C.ar      12 UNK        -0.0787 
     12 C12        32.7445   -1.4318   -4.2941 C.ar      12 UNK        -0.0862 
     13 C13        32.0235   -1.1514   -3.1285 C.ar      12 UNK        -0.0733 
     14 C14        30.8864   -1.9051   -2.8269 C.ar      12 UNK        -0.0832 
     15 C15        32.4396    0.0011   -2.2229 C.3       12 UNK         0.0240 
     16 S16        31.0956    1.2111   -1.9663 S.3       12 UNK        -0.2522 
     17 C17        30.6743    1.6856   -3.6789 C.3       12 UNK        -0.0967 
     18 CA         29.3030    1.1287   -4.1450 C.3       5 UNK         0.0660 
     19 N          28.2186    1.5322   -3.2322 N.am      5 UNK        -0.4015 
     20 C          26.9013    1.3199   -3.3755 C.2       4 UNK         0.4946 
     21 O          26.3888    0.7988   -4.3685 O.2       4 UNK        -0.5353 
     22 CA         26.0091    1.8553   -2.2397 C.3       4 UNK         0.0277 
     23 CB         26.0249    3.3948   -2.2189 C.3       4 UNK        -0.1981 
     24 N          24.6191    1.4117   -2.3714 N.am      4 UNK        -0.4209 
     25 C          24.1724    0.1768   -2.1117 C.2       3 UNK         0.4942 
     26 O          24.8767   -0.7196   -1.6432 O.2       3 UNK        -0.5208 
     27 CA         22.6927   -0.1154   -2.4156 C.3       3 UNK         0.0250 
     28 CB         21.9769    0.9743   -3.2448 C.3       3 UNK        -0.1990 
     29 N          22.6085   -1.3966   -3.1097 N.am      3 UNK        -0.4232 
     30 C          21.6133   -2.2862   -3.0088 C.2       2 UNK         0.4993 
     31 O          20.6124   -2.1168   -2.3111 O.2       2 UNK        -0.5286 
     32 CA         21.7406   -3.5807   -3.8367 C.3       2 UNK         0.0209 
     33 CB         20.7684   -3.5542   -5.0283 C.3       2 UNK        -0.1931 
     34 N          23.0988   -3.8027   -4.3419 N.am      2 UNK        -0.4546 
     35 C          24.1123   -4.3039   -3.6211 C.2       1 UNK         0.5154 
     36 O          23.9854   -4.7338   -2.4739 O.2       1 UNK        -0.5181 
     37 C          29.0739    1.5008   -5.6262 C.2       5 UNK         0.5014 
     38 O          29.5370    0.7811   -6.5141 O.2       5 UNK        -0.5248 
     39 N          28.3455    2.5995   -5.8739 N.am      6 UNK        -0.4434 
     40 CA         27.9145    3.0595   -7.1960 C.3       6 UNK         0.0363 
     41 CB         27.1551    4.3865   -7.0463 C.3       6 UNK        -0.1936 
     42 C          27.0616    2.0377   -7.9729 C.2       6 UNK         0.5081 
     43 O          27.0903    2.0600   -9.2031 O.2       6 UNK        -0.5248 
     44 N          26.3727    1.1238   -7.2695 N.am      7 UNK        -0.4718 
     45 CA         25.6382   -0.0005   -7.8635 C.3       7 UNK         0.0273 
     46 CB         24.8149   -0.7086   -6.7745 C.3       7 UNK        -0.1935 
     47 C          26.5471   -1.0095   -8.5925 C.2       7 UNK         0.5018 
     48 O          26.0719   -1.6982   -9.4950 O.2       7 UNK        -0.5186 
     49 N          27.8298   -1.0598   -8.2096 N.am      8 UNK        -0.4240 
     50 CA         28.8872   -1.8322   -8.8628 C.3       8 UNK         0.0235 
     51 CB         29.5304   -2.7565   -7.8196 C.3       8 UNK        -0.2000 
     52 C          29.9275   -0.9042   -9.5206 C.2       8 UNK         0.4941 
     53 O          31.0685   -1.3214   -9.7235 O.2       8 UNK        -0.5273 
     54 N          29.5249    0.3380   -9.8347 N.am      9 UNK        -0.4262 
     55 CA         30.3024    1.3935  -10.4952 C.3       9 UNK         0.0264 
     56 CB         30.6670    0.9817  -11.9383 C.3       9 UNK        -0.1955 
     57 C          31.5234    1.9019   -9.6990 C.2       9 UNK         0.5031 
     58 O          32.4111    2.5061  -10.3033 O.2       9 UNK        -0.5390 
     59 N          31.5312    1.6932   -8.3716 N.am      10 UNK        -0.4204 
     60 CA         32.5348    2.1439   -7.3994 C.3       10 UNK         0.0237 
     61 CB         32.4264    3.6680   -7.1865 C.3       10 UNK        -0.1985 
     62 C          33.9636    1.6820   -7.7449 C.2       10 UNK         0.4970 
     63 O          34.8124    2.4999   -8.1047 O.2       10 UNK        -0.4914 
     64 N          34.1902    0.3672   -7.6330 N.am      11 UNK        -0.4285 
     65 CA         35.4648   -0.3111   -7.9289 C.3       11 UNK         0.1007 
     66 C          36.6916    0.1033   -7.0583 C.2       11 UNK         0.5703 
     67 N          36.5153    0.7922   -5.9366 N.am      11 UNK        -0.7361 
     68 O          37.8268   -0.2023   -7.4165 O.2       11 UNK        -0.4986 
     69 C69        35.2839   -1.8540   -7.9811 C.3       12 UNK        -0.0947 
     70 S70        34.8671   -2.6049   -6.3668 S.3       12 UNK        -0.2240 
     71 C71        33.0524   -2.7214   -6.4785 C.3       12 UNK         0.0194 
     72 H72        25.6662   -4.1234   -8.2852 H         1 UNK         0.0906 
     73 H73        25.6899   -5.8732   -8.4916 H         1 UNK         0.0906 
     74 H74        24.1500   -5.0093   -8.4692 H         1 UNK         0.0906 
     75 H75        25.8707   -3.4238   -6.1661 H         1 UNK         0.3140 
     76 H76        26.0189   -5.1974   -3.9842 H         1 UNK         0.1085 
     77 H77        26.4886   -3.2199   -2.6267 H         1 UNK         0.0836 
     78 H78        25.7279   -2.1586   -3.7729 H         1 UNK         0.0836 
     79 H79        29.1523   -4.6315   -3.7123 H         1 UNK         0.0731 
     80 H80        28.8092   -3.4875   -2.4277 H         1 UNK         0.0731 
     81 H81        30.8543   -3.9761   -5.5103 H         1 UNK         0.1312 
     82 H82        33.6076   -0.8307   -4.5436 H         1 UNK         0.1406 
     83 H83        30.3006   -1.6607   -1.9510 H         1 UNK         0.1631 
     84 H84        33.3080    0.5224   -2.6287 H         1 UNK         0.0717 
     85 H85        32.7445   -0.3998   -1.2555 H         1 UNK         0.0717 
     86 H86        30.6855    2.7760   -3.7365 H         1 UNK         0.0934 
     87 H87        31.4713    1.3443   -4.3400 H         1 UNK         0.0934 
     88 H88        29.3411    0.0390   -4.1118 H         1 UNK         0.0739 
     89 H89        28.5357    1.9686   -2.3783 H         1 UNK         0.3093 
     90 H90        26.4039    1.4824   -1.2920 H         1 UNK         0.0818 
     91 H91        27.0294    3.7837   -2.0478 H         1 UNK         0.0819 
     92 H92        25.6683    3.8154   -3.1604 H         1 UNK         0.0819 
     93 H93        25.3949    3.7858   -1.4195 H         1 UNK         0.0819 
     94 H94        23.9780    2.0681   -2.7913 H         1 UNK         0.3041 
     95 H95        22.1931   -0.1994   -1.4481 H         1 UNK         0.0784 
     96 H96        21.9535    1.9287   -2.7173 H         1 UNK         0.0793 
     97 H97        22.4587    1.1314   -4.2110 H         1 UNK         0.0793 
     98 H98        20.9395    0.6999   -3.4377 H         1 UNK         0.0793 
     99 H99        23.4190   -1.6448   -3.6573 H         1 UNK         0.3024 
    100 H100       21.4645   -4.4123   -3.1840 H         1 UNK         0.1171 
    101 H101       20.9898   -2.7350   -5.7135 H         1 UNK         0.0786 
    102 H102       20.8079   -4.4859   -5.5931 H         1 UNK         0.0786 
    103 H103       19.7391   -3.4264   -4.6898 H         1 UNK         0.0786 
    104 H104       23.2919   -3.5075   -5.2880 H         1 UNK         0.2977 
    105 H105       28.0002    3.1228   -5.0832 H         1 UNK         0.3127 
    106 H106       28.8147    3.2440   -7.7861 H         1 UNK         0.0770 
    107 H107       26.2568    4.2709   -6.4383 H         1 UNK         0.0814 
    108 H108       26.8429    4.7690   -8.0192 H         1 UNK         0.0814 
    109 H109       27.7789    5.1526   -6.5853 H         1 UNK         0.0814 
    110 H110       26.4153    1.1441   -6.2518 H         1 UNK         0.2983 
    111 H111       24.9477    0.4079   -8.6046 H         1 UNK         0.0947 
    112 H112       24.2202   -1.5194   -7.1973 H         1 UNK         0.0806 
    113 H113       24.1254   -0.0191   -6.2871 H         1 UNK         0.0806 
    114 H114       25.4577   -1.1355   -6.0048 H         1 UNK         0.0806 
    115 H115       28.1394   -0.4448   -7.4634 H         1 UNK         0.3000 
    116 H116       28.4736   -2.4528   -9.6601 H         1 UNK         0.0850 
    117 H117       29.9645   -2.1714   -7.0094 H         1 UNK         0.0810 
    118 H118       30.3233   -3.3659   -8.2546 H         1 UNK         0.0810 
    119 H119       28.7979   -3.4386   -7.3884 H         1 UNK         0.0810 
    120 H120       28.5694    0.5963   -9.6128 H         1 UNK         0.3040 
    121 H121       29.6283    2.2484  -10.5651 H         1 UNK         0.0766 
    122 H122       31.4000    0.1746  -11.9554 H         1 UNK         0.0812 
    123 H123       29.7881    0.6497  -12.4908 H         1 UNK         0.0812 
    124 H124       31.0951    1.8192  -12.4905 H         1 UNK         0.0812 
    125 H125       30.7491    1.1848   -7.9653 H         1 UNK         0.3205 
    126 H126       32.2791    1.6660   -6.4546 H         1 UNK         0.0754 
    127 H127       33.1271    4.0064   -6.4221 H         1 UNK         0.0769 
    128 H128       31.4261    3.9503   -6.8574 H         1 UNK         0.0769 
    129 H129       32.6475    4.2224   -8.0993 H         1 UNK         0.0769 
    130 H130       33.4338   -0.2323   -7.3424 H         1 UNK         0.2981 
    131 H131       35.7278    0.0005   -8.9415 H         1 UNK         0.0541 
    132 H132       37.3193    1.0550   -5.3892 H         1 UNK         0.3459 
    133 H133       35.5923    1.0600   -5.6398 H         1 UNK         0.3459 
    134 H134       36.1996   -2.3259   -8.3417 H         1 UNK         0.0612 
    135 H135       34.5189   -2.1176   -8.7134 H         1 UNK         0.0612 
    136 H136       32.8011   -3.7104   -6.8645 H         1 UNK         0.0624 
    137 H137       32.6702   -2.0049   -7.2059 H         1 UNK         0.0624 
@<TRIPOS>BOND
     1    1    2 1    
     2    1   72 1    
     3    1   73 1    
     4    1   74 1    
     5    2    3 2    
     6    2    4 am   BACKBONE|DICT|INTERRES
     7    4    5 1    
     8    4   75 1    
     9    5    6 1    
    10    5   35 1    
    11    5   76 1    
    12    6    7 1    
    13    6   77 1    
    14    6   78 1    
    15    7    8 1    
    16    8    9 1    
    17    8   79 1    
    18    8   80 1    
    19    9   10 ar   
    20    9   14 ar   
    21   10   11 ar   
    22   10   81 1    
    23   11   12 ar   
    24   11   71 1    
    25   12   13 ar   
    26   12   82 1    
    27   13   14 ar   
    28   13   15 1    
    29   14   83 1    
    30   15   16 1    
    31   15   84 1    
    32   15   85 1    
    33   16   17 1    
    34   17   18 1    
    35   17   86 1    
    36   17   87 1    
    37   18   19 1    
    38   18   37 1    
    39   18   88 1    
    40   19   20 am   BACKBONE|DICT|INTERRES
    41   19   89 1    
    42   20   21 2    
    43   20   22 1    
    44   22   23 1    
    45   22   24 1    
    46   22   90 1    
    47   23   91 1    
    48   23   92 1    
    49   23   93 1    
    50   24   25 am   BACKBONE|DICT|INTERRES
    51   24   94 1    
    52   25   26 2    
    53   25   27 1    
    54   27   28 1    
    55   27   29 1    
    56   27   95 1    
    57   28   96 1    
    58   28   97 1    
    59   28   98 1    
    60   29   30 am   BACKBONE|DICT|INTERRES
    61   29   99 1    
    62   30   31 2    
    63   30   32 1    
    64   32   33 1    
    65   32   34 1    
    66   32  100 1    
    67   33  101 1    
    68   33  102 1    
    69   33  103 1    
    70   34   35 am   BACKBONE|DICT|INTERRES
    71   34  104 1    
    72   35   36 2    
    73   37   38 2    
    74   37   39 am   BACKBONE|DICT|INTERRES
    75   39   40 1    
    76   39  105 1    
    77   40   41 1    
    78   40   42 1    
    79   40  106 1    
    80   41  107 1    
    81   41  108 1    
    82   41  109 1    
    83   42   43 2    
    84   42   44 am   BACKBONE|DICT|INTERRES
    85   44   45 1    
    86   44  110 1    
    87   45   46 1    
    88   45   47 1    
    89   45  111 1    
    90   46  112 1    
    91   46  113 1    
    92   46  114 1    
    93   47   48 2    
    94   47   49 am   BACKBONE|DICT|INTERRES
    95   49   50 1    
    96   49  115 1    
    97   50   51 1    
    98   50   52 1    
    99   50  116 1    
   100   51  117 1    
   101   51  118 1    
   102   51  119 1    
   103   52   53 2    
   104   52   54 am   BACKBONE|DICT|INTERRES
   105   54   55 1    
   106   54  120 1    
   107   55   56 1    
   108   55   57 1    
   109   55  121 1    
   110   56  122 1    
   111   56  123 1    
   112   56  124 1    
   113   57   58 2    
   114   57   59 am   BACKBONE|DICT|INTERRES
   115   59   60 1    
   116   59  125 1    
   117   60   61 1    
   118   60   62 1    
   119   60  126 1    
   120   61  127 1    
   121   61  128 1    
   122   61  129 1    
   123   62   63 2    
   124   62   64 am   BACKBONE|DICT|INTERRES
   125   64   65 1    
   126   64  130 1    
   127   65   66 1    
   128   65   69 1    
   129   65  131 1    
   130   66   67 am   BACKBONE|DICT|INTERRES
   131   66   68 2    
   132   67  132 1    
   133   67  133 1    
   134   69   70 1    
   135   69  134 1    
   136   69  135 1    
   137   70   71 1    
   138   71  136 1    
   139   71  137 1    
@<TRIPOS>SUBSTRUCTURE
     1 UNK         1 GROUP             0       ****    0 ROOT    
