@<TRIPOS>MOLECULE
3R137
137   139    1
SMALL
USER_CHARGES


@<TRIPOS>ATOM
      1 CA         28.3804   -3.4367    3.4165 C.3       0 UNK        -0.2020 
      2 C          28.0677   -3.6879    1.9486 C.2       0 UNK         0.4855 
      3 O          27.2152   -4.5229    1.6437 O.2       0 UNK        -0.5197 
      4 N          28.7543   -2.9717    1.0471 N.am      1 UNK        -0.4892 
      5 CA         28.6049   -3.0296   -0.4162 C.3       1 UNK         0.0835 
      6 C6         29.0253   -4.4019   -1.0284 C.3       12 UNK        -0.0855 
      7 S7         30.7491   -4.8394   -0.5904 S.3       12 UNK        -0.2931 
      8 C8         31.6114   -4.8617   -2.2036 C.3       12 UNK         0.0378 
      9 C9         31.3657   -3.6217   -3.0586 C.ar      12 UNK        -0.0802 
     10 C10        31.4222   -2.3384   -2.5052 C.ar      12 UNK        -0.0944 
     11 C11        31.1124   -1.2115   -3.2715 C.ar      12 UNK        -0.0787 
     12 C12        30.7747   -1.3806   -4.6202 C.ar      12 UNK        -0.0862 
     13 C13        30.7915   -2.6494   -5.2071 C.ar      12 UNK        -0.0733 
     14 C14        31.0756   -3.7664   -4.4181 C.ar      12 UNK        -0.0832 
     15 C15        30.5415   -2.8083   -6.7008 C.3       12 UNK         0.0240 
     16 S16        29.0765   -3.8229   -7.0898 S.3       12 UNK        -0.2522 
     17 C17        27.7191   -2.8972   -6.3013 C.3       12 UNK        -0.0967 
     18 CA         27.0825   -1.8358   -7.2339 C.3       5 UNK         0.0660 
     19 N          25.6832   -1.5697   -6.8947 N.am      5 UNK        -0.4015 
     20 C          24.8313   -0.8679   -7.6573 C.2       4 UNK         0.4946 
     21 O          25.1154   -0.4131   -8.7644 O.2       4 UNK        -0.5353 
     22 CA         23.4413   -0.5822   -7.0648 C.3       4 UNK         0.0277 
     23 CB         22.4888   -1.7595   -7.3265 C.3       4 UNK        -0.1981 
     24 N          23.4893   -0.2937   -5.6295 N.am      4 UNK        -0.4209 
     25 C          24.1056    0.7698   -5.0922 C.2       3 UNK         0.4942 
     26 O          24.6343    1.6604   -5.7552 O.2       3 UNK        -0.5208 
     27 CA         24.1945    0.8204   -3.5578 C.3       3 UNK         0.0250 
     28 CB         22.9668    1.5334   -2.9694 C.3       3 UNK        -0.1990 
     29 N          24.3427   -0.5014   -2.9379 N.am      3 UNK        -0.4232 
     30 C          25.3776   -1.3285   -3.1421 C.2       2 UNK         0.4993 
     31 O          26.3160   -1.0811   -3.9053 O.2       2 UNK        -0.5286 
     32 CA         25.3142   -2.6902   -2.4318 C.3       2 UNK         0.0209 
     33 CB         24.7986   -3.7738   -3.3928 C.3       2 UNK        -0.1931 
     34 N          26.6204   -3.0923   -1.9062 N.am      2 UNK        -0.4546 
     35 C          27.2089   -2.5175   -0.8480 C.2       1 UNK         0.5154 
     36 O          26.6885   -1.5934   -0.2154 O.2       1 UNK        -0.5181 
     37 C          27.8909   -0.5279   -7.2385 C.2       5 UNK         0.5014 
     38 O          28.5778   -0.2440   -8.2204 O.2       5 UNK        -0.5248 
     39 N          27.7585    0.2628   -6.1631 N.am      6 UNK        -0.4434 
     40 CA         28.3894    1.5774   -6.0125 C.3       6 UNK         0.0363 
     41 CB         28.0580    2.1462   -4.6248 C.3       6 UNK        -0.1936 
     42 C          28.0059    2.5768   -7.1204 C.2       6 UNK         0.5081 
     43 O          28.8511    3.3707   -7.5319 O.2       6 UNK        -0.5248 
     44 N          26.7564    2.5075   -7.5960 N.am      7 UNK        -0.4718 
     45 CA         26.2570    3.2902   -8.7232 C.3       7 UNK         0.0273 
     46 CB         24.7194    3.3152   -8.6913 C.3       7 UNK        -0.1935 
     47 C          26.7712    2.7773  -10.0797 C.2       7 UNK         0.5018 
     48 O          27.3274    3.5659  -10.8451 O.2       7 UNK        -0.5186 
     49 N          26.5343    1.4914  -10.3791 N.am      8 UNK        -0.4240 
     50 CA         26.7409    0.9225  -11.7139 C.3       8 UNK         0.0235 
     51 CB         25.7998   -0.2770  -11.9161 C.3       8 UNK        -0.2000 
     52 C          28.1919    0.5127  -12.0022 C.2       8 UNK         0.4941 
     53 O          28.6915    0.8109  -13.0882 O.2       8 UNK        -0.5273 
     54 N          28.8248   -0.1965  -11.0600 N.am      9 UNK        -0.4262 
     55 CA         30.1546   -0.7908  -11.2296 C.3       9 UNK         0.0264 
     56 CB         30.1461   -2.2143  -10.6482 C.3       9 UNK        -0.1955 
     57 C          31.2620    0.0470  -10.5739 C.2       9 UNK         0.5031 
     58 O          32.3865    0.0356  -11.0774 O.2       9 UNK        -0.5390 
     59 N          30.9166    0.7461   -9.4828 N.am      10 UNK        -0.4204 
     60 CA         31.7697    1.5221   -8.5752 C.3       10 UNK         0.0237 
     61 CB         32.6614    2.5386   -9.3182 C.3       10 UNK        -0.1985 
     62 C          32.5828    0.6265   -7.6255 C.2       10 UNK         0.4970 
     63 O          32.8715   -0.5318   -7.9333 O.2       10 UNK        -0.4914 
     64 N          32.9064    1.1876   -6.4575 N.am      11 UNK        -0.4285 
     65 CA         33.6147    0.5056   -5.3663 C.3       11 UNK         0.1007 
     66 C          35.1320    0.3413   -5.6474 C.2       11 UNK         0.5703 
     67 N          35.7600   -0.6788   -5.0782 N.am      11 UNK        -0.7361 
     68 O          35.7518    1.1464   -6.3408 O.2       11 UNK        -0.4986 
     69 C69        33.3661    1.2019   -4.0006 C.3       12 UNK        -0.0947 
     70 S70        31.6016    1.5502   -3.6737 S.3       12 UNK        -0.2240 
     71 C71        31.1116    0.1607   -2.5982 C.3       12 UNK         0.0194 
     72 H72        28.7193   -4.3576    3.8903 H         1 UNK         0.0906 
     73 H73        29.1575   -2.6836    3.5465 H         1 UNK         0.0906 
     74 H74        27.4863   -3.0944    3.9371 H         1 UNK         0.0906 
     75 H75        29.4202   -2.2873    1.3770 H         1 UNK         0.3140 
     76 H76        29.2891   -2.2767   -0.8058 H         1 UNK         0.1085 
     77 H77        28.3687   -5.1998   -0.6781 H         1 UNK         0.0836 
     78 H78        28.9344   -4.3928   -2.1151 H         1 UNK         0.0836 
     79 H79        32.6833   -4.9610   -2.0283 H         1 UNK         0.0731 
     80 H80        31.3023   -5.7611   -2.7386 H         1 UNK         0.0731 
     81 H81        31.6733   -2.2219   -1.4597 H         1 UNK         0.1312 
     82 H82        30.5318   -0.5203   -5.2262 H         1 UNK         0.1406 
     83 H83        31.0641   -4.7500   -4.8683 H         1 UNK         0.1631 
     84 H84        30.4529   -1.8363   -7.1847 H         1 UNK         0.0717 
     85 H85        31.4164   -3.2791   -7.1510 H         1 UNK         0.0717 
     86 H86        26.9713   -3.6472   -6.0427 H         1 UNK         0.0934 
     87 H87        28.0442   -2.4755   -5.3484 H         1 UNK         0.0934 
     88 H88        27.0849   -2.2270   -8.2541 H         1 UNK         0.0739 
     89 H89        25.3904   -1.8377   -5.9670 H         1 UNK         0.3093 
     90 H90        23.0425    0.2999   -7.5706 H         1 UNK         0.0818 
     91 H91        21.4778   -1.5351   -6.9858 H         1 UNK         0.0819 
     92 H92        22.4269   -1.9793   -8.3935 H         1 UNK         0.0819 
     93 H93        22.8186   -2.6703   -6.8251 H         1 UNK         0.0819 
     94 H94        23.0610   -0.9648   -5.0091 H         1 UNK         0.3041 
     95 H95        25.0816    1.4031   -3.3016 H         1 UNK         0.0784 
     96 H96        22.8500    2.5282   -3.4022 H         1 UNK         0.0793 
     97 H97        22.0453    0.9833   -3.1641 H         1 UNK         0.0793 
     98 H98        23.0611    1.6616   -1.8909 H         1 UNK         0.0793 
     99 H99        23.6097   -0.7834   -2.3024 H         1 UNK         0.3024 
    100 H100       24.6203   -2.6172   -1.5909 H         1 UNK         0.1171 
    101 H101       24.6875   -4.7318   -2.8843 H         1 UNK         0.0786 
    102 H102       23.8199   -3.5099   -3.7959 H         1 UNK         0.0786 
    103 H103       25.4713   -3.9215   -4.2371 H         1 UNK         0.0786 
    104 H104       27.1081   -3.8189   -2.4078 H         1 UNK         0.2977 
    105 H105       27.1870   -0.0652   -5.3887 H         1 UNK         0.3127 
    106 H106       29.4688    1.4280   -6.0698 H         1 UNK         0.0770 
    107 H107       26.9943    2.3591   -4.5200 H         1 UNK         0.0814 
    108 H108       28.5962    3.0786   -4.4499 H         1 UNK         0.0814 
    109 H109       28.3422    1.4538   -3.8322 H         1 UNK         0.0814 
    110 H110       26.0954    1.8898   -7.1354 H         1 UNK         0.2983 
    111 H111       26.6076    4.3182   -8.6060 H         1 UNK         0.0947 
    112 H112       24.3199    3.8976   -9.5226 H         1 UNK         0.0806 
    113 H113       24.3518    3.7691   -7.7707 H         1 UNK         0.0806 
    114 H114       24.2940    2.3133   -8.7586 H         1 UNK         0.0806 
    115 H115       26.0717    0.8939   -9.6960 H         1 UNK         0.3000 
    116 H116       26.4635    1.6778  -12.4531 H         1 UNK         0.0850 
    117 H117       25.8906   -0.6788  -12.9262 H         1 UNK         0.0810 
    118 H118       24.7574    0.0080  -11.7726 H         1 UNK         0.0810 
    119 H119       26.0219   -1.0885  -11.2220 H         1 UNK         0.0810 
    120 H120       28.3792   -0.3323  -10.1573 H         1 UNK         0.3040 
    121 H121       30.3934   -0.8719  -12.2923 H         1 UNK         0.0766 
    122 H122       29.4195   -2.8466  -11.1584 H         1 UNK         0.0812 
    123 H123       29.9022   -2.2151   -9.5865 H         1 UNK         0.0812 
    124 H124       31.1229   -2.6875  -10.7578 H         1 UNK         0.0812 
    125 H125       29.9770    0.5785   -9.1286 H         1 UNK         0.3205 
    126 H126       31.0754    2.0905   -7.9574 H         1 UNK         0.0754 
    127 H127       33.1311    3.2288   -8.6167 H         1 UNK         0.0769 
    128 H128       32.0808    3.1367  -10.0207 H         1 UNK         0.0769 
    129 H129       33.4651    2.0521   -9.8713 H         1 UNK         0.0769 
    130 H130       32.6614    2.1505   -6.2829 H         1 UNK         0.2981 
    131 H131       33.2066   -0.5031   -5.3004 H         1 UNK         0.0541 
    132 H132       35.2649   -1.3387   -4.4989 H         1 UNK         0.3459 
    133 H133       36.7487   -0.7946   -5.2365 H         1 UNK         0.3459 
    134 H134       33.8967    2.1550   -3.9608 H         1 UNK         0.0612 
    135 H135       33.7675    0.5976   -3.1852 H         1 UNK         0.0612 
    136 H136       30.1046    0.3552   -2.2274 H         1 UNK         0.0624 
    137 H137       31.7659    0.1574   -1.7251 H         1 UNK         0.0624 
@<TRIPOS>BOND
     1    1    2 1    
     2    1   72 1    
     3    1   73 1    
     4    1   74 1    
     5    2    3 2    
     6    2    4 am   BACKBONE|DICT|INTERRES
     7    4    5 1    
     8    4   75 1    
     9    5    6 1    
    10    5   35 1    
    11    5   76 1    
    12    6    7 1    
    13    6   77 1    
    14    6   78 1    
    15    7    8 1    
    16    8    9 1    
    17    8   79 1    
    18    8   80 1    
    19    9   10 ar   
    20    9   14 ar   
    21   10   11 ar   
    22   10   81 1    
    23   11   12 ar   
    24   11   71 1    
    25   12   13 ar   
    26   12   82 1    
    27   13   14 ar   
    28   13   15 1    
    29   14   83 1    
    30   15   16 1    
    31   15   84 1    
    32   15   85 1    
    33   16   17 1    
    34   17   18 1    
    35   17   86 1    
    36   17   87 1    
    37   18   19 1    
    38   18   37 1    
    39   18   88 1    
    40   19   20 am   BACKBONE|DICT|INTERRES
    41   19   89 1    
    42   20   21 2    
    43   20   22 1    
    44   22   23 1    
    45   22   24 1    
    46   22   90 1    
    47   23   91 1    
    48   23   92 1    
    49   23   93 1    
    50   24   25 am   BACKBONE|DICT|INTERRES
    51   24   94 1    
    52   25   26 2    
    53   25   27 1    
    54   27   28 1    
    55   27   29 1    
    56   27   95 1    
    57   28   96 1    
    58   28   97 1    
    59   28   98 1    
    60   29   30 am   BACKBONE|DICT|INTERRES
    61   29   99 1    
    62   30   31 2    
    63   30   32 1    
    64   32   33 1    
    65   32   34 1    
    66   32  100 1    
    67   33  101 1    
    68   33  102 1    
    69   33  103 1    
    70   34   35 am   BACKBONE|DICT|INTERRES
    71   34  104 1    
    72   35   36 2    
    73   37   38 2    
    74   37   39 am   BACKBONE|DICT|INTERRES
    75   39   40 1    
    76   39  105 1    
    77   40   41 1    
    78   40   42 1    
    79   40  106 1    
    80   41  107 1    
    81   41  108 1    
    82   41  109 1    
    83   42   43 2    
    84   42   44 am   BACKBONE|DICT|INTERRES
    85   44   45 1    
    86   44  110 1    
    87   45   46 1    
    88   45   47 1    
    89   45  111 1    
    90   46  112 1    
    91   46  113 1    
    92   46  114 1    
    93   47   48 2    
    94   47   49 am   BACKBONE|DICT|INTERRES
    95   49   50 1    
    96   49  115 1    
    97   50   51 1    
    98   50   52 1    
    99   50  116 1    
   100   51  117 1    
   101   51  118 1    
   102   51  119 1    
   103   52   53 2    
   104   52   54 am   BACKBONE|DICT|INTERRES
   105   54   55 1    
   106   54  120 1    
   107   55   56 1    
   108   55   57 1    
   109   55  121 1    
   110   56  122 1    
   111   56  123 1    
   112   56  124 1    
   113   57   58 2    
   114   57   59 am   BACKBONE|DICT|INTERRES
   115   59   60 1    
   116   59  125 1    
   117   60   61 1    
   118   60   62 1    
   119   60  126 1    
   120   61  127 1    
   121   61  128 1    
   122   61  129 1    
   123   62   63 2    
   124   62   64 am   BACKBONE|DICT|INTERRES
   125   64   65 1    
   126   64  130 1    
   127   65   66 1    
   128   65   69 1    
   129   65  131 1    
   130   66   67 am   BACKBONE|DICT|INTERRES
   131   66   68 2    
   132   67  132 1    
   133   67  133 1    
   134   69   70 1    
   135   69  134 1    
   136   69  135 1    
   137   70   71 1    
   138   71  136 1    
   139   71  137 1    
@<TRIPOS>SUBSTRUCTURE
     1 UNK         1 GROUP             0       ****    0 ROOT    
