@<TRIPOS>MOLECULE
3R137
137   139    1
SMALL
USER_CHARGES


@<TRIPOS>ATOM
      1 CA         27.6276   -7.5269   -4.4041 C.3       0 UNK        -0.2020 
      2 C          27.0888   -6.6125   -3.3140 C.2       0 UNK         0.4855 
      3 O          26.2587   -7.0401   -2.5105 O.2       0 UNK        -0.5197 
      4 N          27.5630   -5.3615   -3.2749 N.am      1 UNK        -0.4892 
      5 CA         27.1166   -4.3255   -2.3358 C.3       1 UNK         0.0835 
      6 C6         28.1195   -3.1466   -2.2573 C.3       12 UNK        -0.0855 
      7 S7         29.7973   -3.6619   -1.7537 S.3       12 UNK        -0.2931 
      8 C8         30.8059   -3.1361   -3.1878 C.3       12 UNK         0.0378 
      9 C9         30.9677   -1.6255   -3.3941 C.ar      12 UNK        -0.0802 
     10 C10        31.6592   -1.1890   -4.5290 C.ar      12 UNK        -0.0944 
     11 C11        31.8404    0.1734   -4.7810 C.ar      12 UNK        -0.0787 
     12 C12        31.2971    1.1120   -3.9032 C.ar      12 UNK        -0.0862 
     13 C13        30.5798    0.7025   -2.7765 C.ar      12 UNK        -0.0733 
     14 C14        30.4504   -0.6670   -2.5102 C.ar      12 UNK        -0.0832 
     15 C15        29.9100    1.7744   -1.9148 C.3       12 UNK         0.0240 
     16 S16        28.4341    1.2369   -0.9729 S.3       12 UNK        -0.2522 
     17 C17        27.1354    0.7051   -2.1575 C.3       12 UNK        -0.0967 
     18 CA         27.3469    0.9053   -3.6859 C.3       5 UNK         0.0660 
     19 N          26.7630   -0.1920   -4.4617 N.am      5 UNK        -0.4015 
     20 C          27.1078   -0.5021   -5.7214 C.2       4 UNK         0.4946 
     21 O          27.9885    0.0784   -6.3510 O.2       4 UNK        -0.5353 
     22 CA         26.3232   -1.6189   -6.4287 C.3       4 UNK         0.0277 
     23 CB         27.1036   -2.9419   -6.3716 C.3       4 UNK        -0.1981 
     24 N          24.9703   -1.7960   -5.8939 N.am      4 UNK        -0.4209 
     25 C          24.0005   -0.8744   -6.0166 C.2       3 UNK         0.4942 
     26 O          24.1416    0.1763   -6.6431 O.2       3 UNK        -0.5208 
     27 CA         22.6788   -1.1178   -5.2652 C.3       3 UNK         0.0250 
     28 CB         21.6574   -1.8014   -6.1872 C.3       3 UNK        -0.1990 
     29 N          22.8221   -1.8987   -4.0320 N.am      3 UNK        -0.4232 
     30 C          23.6041   -1.5759   -2.9916 C.2       2 UNK         0.4993 
     31 O          24.2970   -0.5575   -2.9520 O.2       2 UNK        -0.5286 
     32 CA         23.6901   -2.5821   -1.8266 C.3       2 UNK         0.0209 
     33 CB         22.6136   -3.6915   -1.8688 C.3       2 UNK        -0.1931 
     34 N          25.0303   -3.1795   -1.7226 N.am      2 UNK        -0.4546 
     35 C          25.7034   -3.8133   -2.6965 C.2       1 UNK         0.5154 
     36 O          25.2655   -3.9613   -3.8420 O.2       1 UNK        -0.5181 
     37 C          26.8127    2.2652   -4.1667 C.2       5 UNK         0.5014 
     38 O          27.5851    3.2180   -4.2715 O.2       5 UNK        -0.5248 
     39 N          25.5110    2.3205   -4.4880 N.am      6 UNK        -0.4434 
     40 CA         24.8531    3.4907   -5.0728 C.3       6 UNK         0.0363 
     41 CB         23.3280    3.3014   -5.0324 C.3       6 UNK        -0.1936 
     42 C          25.3347    3.7725   -6.5063 C.2       6 UNK         0.5081 
     43 O          25.5729    4.9306   -6.8494 O.2       6 UNK        -0.5248 
     44 N          25.4878    2.7099   -7.3088 N.am      7 UNK        -0.4718 
     45 CA         26.0032    2.7756   -8.6792 C.3       7 UNK         0.0273 
     46 CB         25.6263    1.4776   -9.4121 C.3       7 UNK        -0.1935 
     47 C          27.5248    3.0021   -8.7613 C.2       7 UNK         0.5018 
     48 O          27.9989    3.4662   -9.7988 O.2       7 UNK        -0.5186 
     49 N          28.2533    2.6370   -7.6946 N.am      8 UNK        -0.4240 
     50 CA         29.7155    2.5280   -7.5986 C.3       8 UNK         0.0235 
     51 CB         30.3918    3.9114   -7.6940 C.3       8 UNK        -0.2000 
     52 C          30.2754    1.4987   -8.6023 C.2       8 UNK         0.4941 
     53 O          31.2734    1.7603   -9.2772 O.2       8 UNK        -0.5273 
     54 N          29.5967    0.3492   -8.6958 N.am      9 UNK        -0.4262 
     55 CA         29.8944   -0.7253   -9.6392 C.3       9 UNK         0.0264 
     56 CB         28.6072   -1.5181   -9.9166 C.3       9 UNK        -0.1955 
     57 C          30.9964   -1.6486   -9.1009 C.2       9 UNK         0.5031 
     58 O          31.0379   -1.9151   -7.8996 O.2       9 UNK        -0.5390 
     59 N          31.8447   -2.1375  -10.0156 N.am      10 UNK        -0.4204 
     60 CA         32.9767   -3.0558   -9.8108 C.3       10 UNK         0.0237 
     61 CB         32.5439   -4.3555   -9.0975 C.3       10 UNK        -0.1985 
     62 C          34.2277   -2.4306   -9.1590 C.2       10 UNK         0.4970 
     63 O          35.2439   -3.1211   -9.0633 O.2       10 UNK        -0.4914 
     64 N          34.1738   -1.1511   -8.7670 N.am      11 UNK        -0.4285 
     65 CA         35.3488   -0.3646   -8.3594 C.3       11 UNK         0.1007 
     66 C          36.2023    0.0622   -9.5855 C.2       11 UNK         0.5703 
     67 N          37.5026    0.2457   -9.4005 N.am      11 UNK        -0.7361 
     68 O          35.6966    0.2600  -10.6895 O.2       11 UNK        -0.4986 
     69 C69        34.9524    0.8667   -7.5043 C.3       12 UNK        -0.0947 
     70 S70        34.3821    0.3880   -5.8410 S.3       12 UNK        -0.2240 
     71 C71        32.5941    0.6303   -6.0189 C.3       12 UNK         0.0194 
     72 H72        28.3609   -7.0237   -5.0341 H         1 UNK         0.0906 
     73 H73        28.1047   -8.4001   -3.9599 H         1 UNK         0.0906 
     74 H74        26.8128   -7.8702   -5.0410 H         1 UNK         0.0906 
     75 H75        28.2423   -5.0666   -3.9596 H         1 UNK         0.3140 
     76 H76        27.0528   -4.7840   -1.3460 H         1 UNK         0.1085 
     77 H77        27.7860   -2.4233   -1.5129 H         1 UNK         0.0836 
     78 H78        28.1667   -2.6084   -3.2058 H         1 UNK         0.0836 
     79 H79        30.3811   -3.5758   -4.0916 H         1 UNK         0.0731 
     80 H80        31.7994   -3.5719   -3.0739 H         1 UNK         0.0731 
     81 H81        32.0615   -1.9119   -5.2266 H         1 UNK         0.1312 
     82 H82        31.4098    2.1672   -4.1125 H         1 UNK         0.1406 
     83 H83        29.9157   -0.9792   -1.6265 H         1 UNK         0.1631 
     84 H84        29.6269    2.6295   -2.5303 H         1 UNK         0.0717 
     85 H85        30.6486    2.1449   -1.2031 H         1 UNK         0.0717 
     86 H86        26.9968   -0.3555   -1.9550 H         1 UNK         0.0934 
     87 H87        26.1927    1.1527   -1.8352 H         1 UNK         0.0934 
     88 H88        28.4023    0.8925   -3.9279 H         1 UNK         0.0739 
     89 H89        25.9692   -0.6589   -4.0361 H         1 UNK         0.3093 
     90 H90        26.2281   -1.3339   -7.4781 H         1 UNK         0.0818 
     91 H91        28.0953   -2.8305   -6.8124 H         1 UNK         0.0819 
     92 H92        27.2524   -3.2815   -5.3490 H         1 UNK         0.0819 
     93 H93        26.5897   -3.7326   -6.9181 H         1 UNK         0.0819 
     94 H94        24.8072   -2.6208   -5.3232 H         1 UNK         0.3041 
     95 H95        22.2844   -0.1391   -4.9844 H         1 UNK         0.0784 
     96 H96        21.5140   -1.2272   -7.1039 H         1 UNK         0.0793 
     97 H97        21.9808   -2.8022   -6.4767 H         1 UNK         0.0793 
     98 H98        20.6828   -1.8879   -5.7064 H         1 UNK         0.0793 
     99 H99        22.3213   -2.7746   -3.9914 H         1 UNK         0.3024 
    100 H100       23.5299   -1.9987   -0.9181 H         1 UNK         0.1171 
    101 H101       22.6609   -4.3105   -0.9727 H         1 UNK         0.0786 
    102 H102       21.6086   -3.2685   -1.9067 H         1 UNK         0.0786 
    103 H103       22.7322   -4.3546   -2.7267 H         1 UNK         0.0786 
    104 H104       25.4785   -3.0720   -0.8229 H         1 UNK         0.2977 
    105 H105       24.9465    1.4904   -4.3686 H         1 UNK         0.3127 
    106 H106       25.1041    4.3596   -4.4604 H         1 UNK         0.0770 
    107 H107       23.0079    2.4435   -5.6245 H         1 UNK         0.0814 
    108 H108       22.8178    4.1792   -5.4313 H         1 UNK         0.0814 
    109 H109       22.9724    3.1568   -4.0121 H         1 UNK         0.0814 
    110 H110       25.1863    1.7978   -6.9751 H         1 UNK         0.2983 
    111 H111       25.5195    3.6111   -9.1901 H         1 UNK         0.0947 
    112 H112       26.0869    0.6060   -8.9467 H         1 UNK         0.0806 
    113 H113       25.9555    1.5046  -10.4518 H         1 UNK         0.0806 
    114 H114       24.5471    1.3227   -9.4169 H         1 UNK         0.0806 
    115 H115       27.7513    2.2184   -6.9220 H         1 UNK         0.3000 
    116 H116       29.9207    2.1278   -6.6045 H         1 UNK         0.0850 
    117 H117       29.9806    4.6033   -6.9591 H         1 UNK         0.0810 
    118 H118       30.2690    4.3568   -8.6815 H         1 UNK         0.0810 
    119 H119       31.4631    3.8346   -7.5045 H         1 UNK         0.0810 
    120 H120       28.8830    0.1667   -7.9931 H         1 UNK         0.3040 
    121 H121       30.2294   -0.2797  -10.5786 H         1 UNK         0.0766 
    122 H122       28.7854   -2.3141  -10.6408 H         1 UNK         0.0812 
    123 H123       27.8270   -0.8764  -10.3263 H         1 UNK         0.0812 
    124 H124       28.2175   -1.9833   -9.0120 H         1 UNK         0.0812 
    125 H125       31.7141   -1.8426  -10.9744 H         1 UNK         0.3205 
    126 H126       33.2926   -3.3390  -10.8161 H         1 UNK         0.0754 
    127 H127       33.3428   -5.0977   -9.1218 H         1 UNK         0.0769 
    128 H128       31.6738   -4.8027   -9.5780 H         1 UNK         0.0769 
    129 H129       32.2992   -4.1843   -8.0490 H         1 UNK         0.0769 
    130 H130       33.3154   -0.6392   -8.8990 H         1 UNK         0.2981 
    131 H131       35.9815   -1.0065   -7.7425 H         1 UNK         0.0541 
    132 H132       38.0722    0.5350  -10.1804 H         1 UNK         0.3459 
    133 H133       37.9274    0.0975   -8.4981 H         1 UNK         0.3459 
    134 H134       35.8096    1.5269   -7.3585 H         1 UNK         0.0612 
    135 H135       34.1933    1.4666   -8.0103 H         1 UNK         0.0612 
    136 H136       32.3991    1.6834   -6.2253 H         1 UNK         0.0624 
    137 H137       32.2435    0.0737   -6.8846 H         1 UNK         0.0624 
@<TRIPOS>BOND
     1    1    2 1    
     2    1   72 1    
     3    1   73 1    
     4    1   74 1    
     5    2    3 2    
     6    2    4 am   BACKBONE|DICT|INTERRES
     7    4    5 1    
     8    4   75 1    
     9    5    6 1    
    10    5   35 1    
    11    5   76 1    
    12    6    7 1    
    13    6   77 1    
    14    6   78 1    
    15    7    8 1    
    16    8    9 1    
    17    8   79 1    
    18    8   80 1    
    19    9   10 ar   
    20    9   14 ar   
    21   10   11 ar   
    22   10   81 1    
    23   11   12 ar   
    24   11   71 1    
    25   12   13 ar   
    26   12   82 1    
    27   13   14 ar   
    28   13   15 1    
    29   14   83 1    
    30   15   16 1    
    31   15   84 1    
    32   15   85 1    
    33   16   17 1    
    34   17   18 1    
    35   17   86 1    
    36   17   87 1    
    37   18   19 1    
    38   18   37 1    
    39   18   88 1    
    40   19   20 am   BACKBONE|DICT|INTERRES
    41   19   89 1    
    42   20   21 2    
    43   20   22 1    
    44   22   23 1    
    45   22   24 1    
    46   22   90 1    
    47   23   91 1    
    48   23   92 1    
    49   23   93 1    
    50   24   25 am   BACKBONE|DICT|INTERRES
    51   24   94 1    
    52   25   26 2    
    53   25   27 1    
    54   27   28 1    
    55   27   29 1    
    56   27   95 1    
    57   28   96 1    
    58   28   97 1    
    59   28   98 1    
    60   29   30 am   BACKBONE|DICT|INTERRES
    61   29   99 1    
    62   30   31 2    
    63   30   32 1    
    64   32   33 1    
    65   32   34 1    
    66   32  100 1    
    67   33  101 1    
    68   33  102 1    
    69   33  103 1    
    70   34   35 am   BACKBONE|DICT|INTERRES
    71   34  104 1    
    72   35   36 2    
    73   37   38 2    
    74   37   39 am   BACKBONE|DICT|INTERRES
    75   39   40 1    
    76   39  105 1    
    77   40   41 1    
    78   40   42 1    
    79   40  106 1    
    80   41  107 1    
    81   41  108 1    
    82   41  109 1    
    83   42   43 2    
    84   42   44 am   BACKBONE|DICT|INTERRES
    85   44   45 1    
    86   44  110 1    
    87   45   46 1    
    88   45   47 1    
    89   45  111 1    
    90   46  112 1    
    91   46  113 1    
    92   46  114 1    
    93   47   48 2    
    94   47   49 am   BACKBONE|DICT|INTERRES
    95   49   50 1    
    96   49  115 1    
    97   50   51 1    
    98   50   52 1    
    99   50  116 1    
   100   51  117 1    
   101   51  118 1    
   102   51  119 1    
   103   52   53 2    
   104   52   54 am   BACKBONE|DICT|INTERRES
   105   54   55 1    
   106   54  120 1    
   107   55   56 1    
   108   55   57 1    
   109   55  121 1    
   110   56  122 1    
   111   56  123 1    
   112   56  124 1    
   113   57   58 2    
   114   57   59 am   BACKBONE|DICT|INTERRES
   115   59   60 1    
   116   59  125 1    
   117   60   61 1    
   118   60   62 1    
   119   60  126 1    
   120   61  127 1    
   121   61  128 1    
   122   61  129 1    
   123   62   63 2    
   124   62   64 am   BACKBONE|DICT|INTERRES
   125   64   65 1    
   126   64  130 1    
   127   65   66 1    
   128   65   69 1    
   129   65  131 1    
   130   66   67 am   BACKBONE|DICT|INTERRES
   131   66   68 2    
   132   67  132 1    
   133   67  133 1    
   134   69   70 1    
   135   69  134 1    
   136   69  135 1    
   137   70   71 1    
   138   71  136 1    
   139   71  137 1    
@<TRIPOS>SUBSTRUCTURE
     1 UNK         1 GROUP             0       ****    0 ROOT    
