@<TRIPOS>MOLECULE
3R137
137   139    1
SMALL
USER_CHARGES


@<TRIPOS>ATOM
      1 CA         29.4403    1.5371    1.0403 C.3       0 UNK        -0.2020 
      2 C          29.6235    0.2960    0.1800 C.2       0 UNK         0.4855 
      3 O          30.6985    0.0984   -0.3811 O.2       0 UNK        -0.5197 
      4 N          28.5820   -0.5331    0.0763 N.am      1 UNK        -0.4892 
      5 CA         28.4885   -1.7501   -0.7296 C.3       1 UNK         0.0835 
      6 C6         29.3070   -2.9218   -0.1186 C.3       12 UNK        -0.0855 
      7 S7         29.4606   -4.3935   -1.1958 S.3       12 UNK        -0.2931 
      8 C8         31.0967   -4.1714   -1.9686 C.3       12 UNK         0.0378 
      9 C9         31.0201   -3.2314   -3.1615 C.ar      12 UNK        -0.0802 
     10 C10        31.3058   -1.8733   -3.0068 C.ar      12 UNK        -0.0944 
     11 C11        31.1807   -0.9890   -4.0813 C.ar      12 UNK        -0.0787 
     12 C12        30.7758   -1.4843   -5.3251 C.ar      12 UNK        -0.0862 
     13 C13        30.5418   -2.8494   -5.5098 C.ar      12 UNK        -0.0733 
     14 C14        30.6609   -3.7192   -4.4214 C.ar      12 UNK        -0.0832 
     15 C15        30.1903   -3.3723   -6.8965 C.3       12 UNK         0.0240 
     16 S16        28.6610   -4.3573   -6.9529 S.3       12 UNK        -0.2522 
     17 C17        27.4454   -3.2565   -6.1635 C.3       12 UNK        -0.0967 
     18 CA         26.8952   -2.1564   -7.1090 C.3       5 UNK         0.0660 
     19 N          25.4470   -2.0115   -6.9608 N.am      5 UNK        -0.4015 
     20 C          24.6418   -1.3515   -7.8012 C.2       4 UNK         0.4946 
     21 O          25.0282   -0.7950   -8.8288 O.2       4 UNK        -0.5353 
     22 CA         23.1551   -1.2837   -7.4101 C.3       4 UNK         0.0277 
     23 CB         22.3956   -2.4969   -7.9697 C.3       4 UNK        -0.1981 
     24 N          22.9466   -1.1992   -5.9597 N.am      4 UNK        -0.4209 
     25 C          23.2882   -0.1364   -5.2182 C.2       3 UNK         0.4942 
     26 O          23.8045    0.8805   -5.6791 O.2       3 UNK        -0.5208 
     27 CA         23.0579   -0.2395   -3.7015 C.3       3 UNK         0.0250 
     28 CB         21.5677   -0.0671   -3.3645 C.3       3 UNK        -0.1990 
     29 N          23.5696   -1.4668   -3.0757 N.am      3 UNK        -0.4232 
     30 C          24.8258   -1.9232   -3.1774 C.2       2 UNK         0.4993 
     31 O          25.6648   -1.4663   -3.9565 O.2       2 UNK        -0.5286 
     32 CA         25.2247   -3.0911   -2.2622 C.3       2 UNK         0.0209 
     33 CB         25.0886   -4.4375   -2.9892 C.3       2 UNK        -0.1931 
     34 N          26.6107   -2.9115   -1.8233 N.am      2 UNK        -0.4546 
     35 C          26.9805   -2.0448   -0.8737 C.2       1 UNK         0.5154 
     36 O          26.1719   -1.4615   -0.1417 O.2       1 UNK        -0.5181 
     37 C          27.6028   -0.8044   -6.8936 C.2       5 UNK         0.5014 
     38 O          28.4529   -0.4192   -7.6978 O.2       5 UNK        -0.5248 
     39 N          27.2061   -0.0916   -5.8306 N.am      6 UNK        -0.4434 
     40 CA         27.6668    1.2558   -5.5012 C.3       6 UNK         0.0363 
     41 CB         27.1825    1.6291   -4.0917 C.3       6 UNK        -0.1936 
     42 C          27.2276    2.3068   -6.5355 C.2       6 UNK         0.5081 
     43 O          28.0051    3.2143   -6.8266 O.2       6 UNK        -0.5248 
     44 N          26.0193    2.1550   -7.0999 N.am      7 UNK        -0.4718 
     45 CA         25.5096    2.9790   -8.2018 C.3       7 UNK         0.0273 
     46 CB         24.0102    2.7153   -8.4092 C.3       7 UNK        -0.1935 
     47 C          26.2869    2.7664   -9.5123 C.2       7 UNK         0.5018 
     48 O          26.5628    3.7423  -10.2112 O.2       7 UNK        -0.5186 
     49 N          26.6552    1.5096   -9.8070 N.am      8 UNK        -0.4240 
     50 CA         27.5603    1.1482  -10.9048 C.3       8 UNK         0.0235 
     51 CB         27.5083   -0.3714  -11.1339 C.3       8 UNK        -0.2000 
     52 C          29.0108    1.6101  -10.6623 C.2       8 UNK         0.4941 
     53 O          29.7396    1.8372  -11.6282 O.2       8 UNK        -0.5273 
     54 N          29.3876    1.7435   -9.3823 N.am      9 UNK        -0.4262 
     55 CA         30.6680    2.2182   -8.8503 C.3       9 UNK         0.0264 
     56 CB         30.9395    3.6785   -9.2678 C.3       9 UNK        -0.1955 
     57 C          31.8472    1.2771   -9.1499 C.2       9 UNK         0.5031 
     58 O          32.9947    1.7256   -9.1916 O.2       9 UNK        -0.5390 
     59 N          31.5673   -0.0243   -9.3022 N.am      10 UNK        -0.4204 
     60 CA         32.5599   -1.0783   -9.5410 C.3       10 UNK         0.0237 
     61 CB         31.8910   -2.2262  -10.3215 C.3       10 UNK        -0.1985 
     62 C          33.2266   -1.5472   -8.2302 C.2       10 UNK         0.4970 
     63 O          33.3182   -2.7496   -7.9813 O.2       10 UNK        -0.4914 
     64 N          33.6500   -0.5855   -7.4022 N.am      11 UNK        -0.4285 
     65 CA         34.1620   -0.7943   -6.0385 C.3       11 UNK         0.1007 
     66 C          35.6108   -1.3565   -5.9594 C.2       11 UNK         0.5703 
     67 N          36.3544   -1.4427   -7.0563 N.am      11 UNK        -0.7361 
     68 O          36.0682   -1.7271   -4.8810 O.2       11 UNK        -0.4986 
     69 C69        34.0059    0.4787   -5.1580 C.3       12 UNK        -0.0947 
     70 S70        32.3622    1.2741   -5.2601 S.3       12 UNK        -0.2240 
     71 C71        31.4653    0.4959   -3.8743 C.3       12 UNK         0.0194 
     72 H72        29.5894    2.4342    0.4399 H         1 UNK         0.0906 
     73 H73        30.1702    1.5433    1.8494 H         1 UNK         0.0906 
     74 H74        28.4447    1.5854    1.4812 H         1 UNK         0.0906 
     75 H75        27.6988   -0.3104    0.5245 H         1 UNK         0.3140 
     76 H76        28.8699   -1.5184   -1.7258 H         1 UNK         0.1085 
     77 H77        28.8635   -3.2358    0.8279 H         1 UNK         0.0836 
     78 H78        30.3119   -2.5812    0.1334 H         1 UNK         0.0836 
     79 H79        31.8173   -3.8108   -1.2329 H         1 UNK         0.0731 
     80 H80        31.4635   -5.1452   -2.2964 H         1 UNK         0.0731 
     81 H81        31.6095   -1.5032   -2.0386 H         1 UNK         0.1312 
     82 H82        30.6721   -0.8073   -6.1616 H         1 UNK         0.1406 
     83 H83        30.4616   -4.7740   -4.5541 H         1 UNK         0.1631 
     84 H84        31.0130   -3.9915   -7.2555 H         1 UNK         0.0717 
     85 H85        30.0965   -2.5500   -7.6054 H         1 UNK         0.0717 
     86 H86        26.6356   -3.9200   -5.8609 H         1 UNK         0.0934 
     87 H87        27.8372   -2.8539   -5.2270 H         1 UNK         0.0934 
     88 H88        27.0732   -2.4539   -8.1449 H         1 UNK         0.0739 
     89 H89        25.0499   -2.3639   -6.1025 H         1 UNK         0.3093 
     90 H90        22.7363   -0.3829   -7.8637 H         1 UNK         0.0818 
     91 H91        22.5199   -2.5682   -9.0513 H         1 UNK         0.0819 
     92 H92        22.7511   -3.4338   -7.5388 H         1 UNK         0.0819 
     93 H93        21.3260   -2.4206   -7.7735 H         1 UNK         0.0819 
     94 H94        22.5253   -1.9950   -5.5024 H         1 UNK         0.3041 
     95 H95        23.5998    0.5916   -3.2452 H         1 UNK         0.0784 
     96 H96        21.1681    0.8433   -3.8141 H         1 UNK         0.0793 
     97 H97        20.9685   -0.9016   -3.7306 H         1 UNK         0.0793 
     98 H98        21.4107    0.0119   -2.2886 H         1 UNK         0.0793 
     99 H99        22.9446   -1.9249   -2.4277 H         1 UNK         0.3024 
    100 H100       24.5703   -3.0986   -1.3872 H         1 UNK         0.1171 
    101 H101       24.0737   -4.5842   -3.3610 H         1 UNK         0.0786 
    102 H102       25.7644   -4.5109   -3.8396 H         1 UNK         0.0786 
    103 H103       25.3102   -5.2686   -2.3193 H         1 UNK         0.0786 
    104 H104       27.3286   -3.3543   -2.3793 H         1 UNK         0.2977 
    105 H105       26.5346   -0.5139   -5.1883 H         1 UNK         0.3127 
    106 H106       28.7587    1.2386   -5.4950 H         1 UNK         0.0770 
    107 H107       27.5315    2.6231   -3.8091 H         1 UNK         0.0814 
    108 H108       26.0935    1.6320   -4.0291 H         1 UNK         0.0814 
    109 H109       27.5579    0.9276   -3.3460 H         1 UNK         0.0814 
    110 H110       25.3946    1.4417   -6.7349 H         1 UNK         0.2983 
    111 H111       25.6313    4.0260   -7.9155 H         1 UNK         0.0947 
    112 H112       23.8163    1.6790   -8.6847 H         1 UNK         0.0806 
    113 H113       23.6102    3.3445   -9.2054 H         1 UNK         0.0806 
    114 H114       23.4403    2.9348   -7.5063 H         1 UNK         0.0806 
    115 H115       26.3127    0.7504   -9.2258 H         1 UNK         0.3000 
    116 H116       27.2059    1.6429  -11.8116 H         1 UNK         0.0850 
    117 H117       28.1505   -0.6634  -11.9658 H         1 UNK         0.0810 
    118 H118       26.4969   -0.7006  -11.3730 H         1 UNK         0.0810 
    119 H119       27.8392   -0.9262  -10.2558 H         1 UNK         0.0810 
    120 H120       28.7253    1.4331   -8.6800 H         1 UNK         0.3040 
    121 H121       30.5538    2.2081   -7.7653 H         1 UNK         0.0766 
    122 H122       31.8087    4.0796   -8.7454 H         1 UNK         0.0812 
    123 H123       30.0926    4.3207   -9.0254 H         1 UNK         0.0812 
    124 H124       31.1342    3.7654  -10.3369 H         1 UNK         0.0812 
    125 H125       30.6043   -0.3139   -9.1942 H         1 UNK         0.3205 
    126 H126       33.3557   -0.6765  -10.1719 H         1 UNK         0.0754 
    127 H127       32.6126   -3.0072  -10.5652 H         1 UNK         0.0769 
    128 H128       31.4731   -1.8711  -11.2638 H         1 UNK         0.0769 
    129 H129       31.0855   -2.6919   -9.7543 H         1 UNK         0.0769 
    130 H130       33.5621    0.3772   -7.7059 H         1 UNK         0.2981 
    131 H131       33.5426   -1.5705   -5.5877 H         1 UNK         0.0541 
    132 H132       37.2898   -1.8121   -6.9920 H         1 UNK         0.3459 
    133 H133       35.9872   -1.1451   -7.9455 H         1 UNK         0.3459 
    134 H134       34.7414    1.2281   -5.4555 H         1 UNK         0.0612 
    135 H135       34.2182    0.2470   -4.1127 H         1 UNK         0.0612 
    136 H136       30.5148    1.0126   -3.7390 H         1 UNK         0.0624 
    137 H137       32.0343    0.6557   -2.9571 H         1 UNK         0.0624 
@<TRIPOS>BOND
     1    1    2 1    
     2    1   72 1    
     3    1   73 1    
     4    1   74 1    
     5    2    3 2    
     6    2    4 am   BACKBONE|DICT|INTERRES
     7    4    5 1    
     8    4   75 1    
     9    5    6 1    
    10    5   35 1    
    11    5   76 1    
    12    6    7 1    
    13    6   77 1    
    14    6   78 1    
    15    7    8 1    
    16    8    9 1    
    17    8   79 1    
    18    8   80 1    
    19    9   10 ar   
    20    9   14 ar   
    21   10   11 ar   
    22   10   81 1    
    23   11   12 ar   
    24   11   71 1    
    25   12   13 ar   
    26   12   82 1    
    27   13   14 ar   
    28   13   15 1    
    29   14   83 1    
    30   15   16 1    
    31   15   84 1    
    32   15   85 1    
    33   16   17 1    
    34   17   18 1    
    35   17   86 1    
    36   17   87 1    
    37   18   19 1    
    38   18   37 1    
    39   18   88 1    
    40   19   20 am   BACKBONE|DICT|INTERRES
    41   19   89 1    
    42   20   21 2    
    43   20   22 1    
    44   22   23 1    
    45   22   24 1    
    46   22   90 1    
    47   23   91 1    
    48   23   92 1    
    49   23   93 1    
    50   24   25 am   BACKBONE|DICT|INTERRES
    51   24   94 1    
    52   25   26 2    
    53   25   27 1    
    54   27   28 1    
    55   27   29 1    
    56   27   95 1    
    57   28   96 1    
    58   28   97 1    
    59   28   98 1    
    60   29   30 am   BACKBONE|DICT|INTERRES
    61   29   99 1    
    62   30   31 2    
    63   30   32 1    
    64   32   33 1    
    65   32   34 1    
    66   32  100 1    
    67   33  101 1    
    68   33  102 1    
    69   33  103 1    
    70   34   35 am   BACKBONE|DICT|INTERRES
    71   34  104 1    
    72   35   36 2    
    73   37   38 2    
    74   37   39 am   BACKBONE|DICT|INTERRES
    75   39   40 1    
    76   39  105 1    
    77   40   41 1    
    78   40   42 1    
    79   40  106 1    
    80   41  107 1    
    81   41  108 1    
    82   41  109 1    
    83   42   43 2    
    84   42   44 am   BACKBONE|DICT|INTERRES
    85   44   45 1    
    86   44  110 1    
    87   45   46 1    
    88   45   47 1    
    89   45  111 1    
    90   46  112 1    
    91   46  113 1    
    92   46  114 1    
    93   47   48 2    
    94   47   49 am   BACKBONE|DICT|INTERRES
    95   49   50 1    
    96   49  115 1    
    97   50   51 1    
    98   50   52 1    
    99   50  116 1    
   100   51  117 1    
   101   51  118 1    
   102   51  119 1    
   103   52   53 2    
   104   52   54 am   BACKBONE|DICT|INTERRES
   105   54   55 1    
   106   54  120 1    
   107   55   56 1    
   108   55   57 1    
   109   55  121 1    
   110   56  122 1    
   111   56  123 1    
   112   56  124 1    
   113   57   58 2    
   114   57   59 am   BACKBONE|DICT|INTERRES
   115   59   60 1    
   116   59  125 1    
   117   60   61 1    
   118   60   62 1    
   119   60  126 1    
   120   61  127 1    
   121   61  128 1    
   122   61  129 1    
   123   62   63 2    
   124   62   64 am   BACKBONE|DICT|INTERRES
   125   64   65 1    
   126   64  130 1    
   127   65   66 1    
   128   65   69 1    
   129   65  131 1    
   130   66   67 am   BACKBONE|DICT|INTERRES
   131   66   68 2    
   132   67  132 1    
   133   67  133 1    
   134   69   70 1    
   135   69  134 1    
   136   69  135 1    
   137   70   71 1    
   138   71  136 1    
   139   71  137 1    
@<TRIPOS>SUBSTRUCTURE
     1 UNK         1 GROUP             0       ****    0 ROOT    
