@<TRIPOS>MOLECULE
3R137
137   139    1
SMALL
USER_CHARGES


@<TRIPOS>ATOM
      1 CA         27.1523   -7.2031   -4.5993 C.3       0 UNK        -0.2020 
      2 C          27.3085   -6.3935   -3.3214 C.2       0 UNK         0.4855 
      3 O          26.4754   -6.5086   -2.4213 O.2       0 UNK        -0.5197 
      4 N          28.3648   -5.5713   -3.2348 N.am      1 UNK        -0.4892 
      5 CA         28.6548   -4.6803   -2.1037 C.3       1 UNK         0.0835 
      6 C6         29.9979   -3.9336   -2.2919 C.3       12 UNK        -0.0855 
      7 S7         30.6354   -3.2731   -0.7165 S.3       12 UNK        -0.2931 
      8 C8         31.6228   -1.8492   -1.2924 C.3       12 UNK         0.0378 
      9 C9         30.8079   -0.6987   -1.8837 C.ar      12 UNK        -0.0802 
     10 C10        31.3340    0.0280   -2.9565 C.ar      12 UNK        -0.0944 
     11 C11        30.6422    1.1185   -3.4955 C.ar      12 UNK        -0.0787 
     12 C12        29.4118    1.4876   -2.9425 C.ar      12 UNK        -0.0862 
     13 C13        28.8732    0.7759   -1.8661 C.ar      12 UNK        -0.0733 
     14 C14        29.5746   -0.3152   -1.3429 C.ar      12 UNK        -0.0832 
     15 C15        27.5579    1.2087   -1.2331 C.3       12 UNK         0.0240 
     16 S16        26.1302    0.3304   -1.9422 S.3       12 UNK        -0.2522 
     17 C17        25.7923    1.2838   -3.4563 C.3       12 UNK        -0.0967 
     18 CA         26.3363    0.6010   -4.7371 C.3       5 UNK         0.0660 
     19 N          25.7389   -0.7194   -4.9684 N.am      5 UNK        -0.4015 
     20 C          26.2932   -1.6863   -5.7110 C.2       4 UNK         0.4946 
     21 O          27.3890   -1.5665   -6.2648 O.2       4 UNK        -0.5353 
     22 CA         25.4947   -2.9876   -5.8767 C.3       4 UNK         0.0277 
     23 CB         26.3243   -4.1175   -6.5186 C.3       4 UNK        -0.1981 
     24 N          24.9599   -3.4460   -4.5937 N.am      4 UNK        -0.4209 
     25 C          23.7486   -3.9994   -4.4294 C.2       3 UNK         0.4942 
     26 O          22.9258   -4.0993   -5.3410 O.2       3 UNK        -0.5208 
     27 CA         23.3727   -4.5640   -3.0446 C.3       3 UNK         0.0250 
     28 CB         23.1203   -6.0797   -3.1283 C.3       3 UNK        -0.1990 
     29 N          24.3876   -4.3104   -2.0210 N.am      3 UNK        -0.4232 
     30 C          24.4414   -3.2038   -1.2656 C.2       2 UNK         0.4993 
     31 O          23.5896   -2.3153   -1.3017 O.2       2 UNK        -0.5286 
     32 CA         25.6458   -3.0472   -0.3143 C.3       2 UNK         0.0209 
     33 CB         25.2477   -3.4317    1.1200 C.3       2 UNK        -0.1931 
     34 N          26.8386   -3.8100   -0.7000 N.am      2 UNK        -0.4546 
     35 C          27.4862   -3.7028   -1.8690 C.2       1 UNK         0.5154 
     36 O          27.1538   -2.9339   -2.7715 O.2       1 UNK        -0.5181 
     37 C          26.1721    1.5079   -5.9768 C.2       5 UNK         0.5014 
     38 O          25.4267    2.4896   -5.9303 O.2       5 UNK        -0.5248 
     39 N          26.8594    1.1589   -7.0713 N.am      6 UNK        -0.4434 
     40 CA         26.9832    1.9819   -8.2768 C.3       6 UNK         0.0363 
     41 CB         27.5691    1.1264   -9.4151 C.3       6 UNK        -0.1936 
     42 C          27.8541    3.2265   -8.0223 C.2       6 UNK         0.5081 
     43 O          28.6200    3.2640   -7.0554 O.2       6 UNK        -0.5248 
     44 N          27.7647    4.2154   -8.9203 N.am      7 UNK        -0.4718 
     45 CA         28.5397    5.4627   -8.8837 C.3       7 UNK         0.0273 
     46 CB         27.8195    6.5195   -9.7423 C.3       7 UNK        -0.1935 
     47 C          30.0057    5.2473   -9.3154 C.2       7 UNK         0.5018 
     48 O          30.4386    5.7991  -10.3275 O.2       7 UNK        -0.5186 
     49 N          30.7184    4.3932   -8.5667 N.am      8 UNK        -0.4240 
     50 CA         32.1004    3.9218   -8.7512 C.3       8 UNK         0.0235 
     51 CB         33.1005    5.0952   -8.7148 C.3       8 UNK        -0.2000 
     52 C          32.3273    3.0245   -9.9861 C.2       8 UNK         0.4941 
     53 O          33.4284    2.4942  -10.1457 O.2       8 UNK        -0.5273 
     54 N          31.3009    2.8332  -10.8249 N.am      9 UNK        -0.4262 
     55 CA         31.3153    2.0211  -12.0420 C.3       9 UNK         0.0264 
     56 CB         30.1459    2.4656  -12.9410 C.3       9 UNK        -0.1955 
     57 C          31.2733    0.5159  -11.7196 C.2       9 UNK         0.5031 
     58 O          30.2564   -0.1357  -11.9643 O.2       9 UNK        -0.5390 
     59 N          32.3769    0.0094  -11.1503 N.am      10 UNK        -0.4204 
     60 CA         32.5936   -1.3687  -10.6885 C.3       10 UNK         0.0237 
     61 CB         32.6486   -2.3464  -11.8825 C.3       10 UNK        -0.1985 
     62 C          31.5779   -1.7868   -9.6066 C.2       10 UNK         0.4970 
     63 O          30.9687   -2.8542   -9.7036 O.2       10 UNK        -0.4914 
     64 N          31.4024   -0.9107   -8.6099 N.am      11 UNK        -0.4285 
     65 CA         30.4979   -1.0937   -7.4688 C.3       11 UNK         0.1007 
     66 C          30.8686   -2.2905   -6.5485 C.2       11 UNK         0.5703 
     67 N          29.8926   -2.8363   -5.8396 N.am      11 UNK        -0.7361 
     68 O          32.0210   -2.7110   -6.4556 O.2       11 UNK        -0.4986 
     69 C69        30.3210    0.2273   -6.6767 C.3       12 UNK        -0.0947 
     70 S70        31.8713    0.9220   -6.0147 S.3       12 UNK        -0.2240 
     71 C71        31.2387    1.9364   -4.6385 C.3       12 UNK         0.0194 
     72 H72        27.2119   -8.2682   -4.3771 H         1 UNK         0.0906 
     73 H73        26.1810   -7.0039   -5.0513 H         1 UNK         0.0906 
     74 H74        27.9227   -6.9644   -5.3323 H         1 UNK         0.0906 
     75 H75        29.0096   -5.5227   -4.0091 H         1 UNK         0.3140 
     76 H76        28.7485   -5.3269   -1.2281 H         1 UNK         0.1085 
     77 H77        30.7567   -4.6115   -2.6860 H         1 UNK         0.0836 
     78 H78        29.8994   -3.1278   -3.0220 H         1 UNK         0.0836 
     79 H79        32.3532   -2.2109   -2.0182 H         1 UNK         0.0731 
     80 H80        32.1949   -1.4624   -0.4482 H         1 UNK         0.0731 
     81 H81        32.2948   -0.2473   -3.3695 H         1 UNK         0.1312 
     82 H82        28.8779    2.3395   -3.3410 H         1 UNK         0.1406 
     83 H83        29.1624   -0.8572   -0.5029 H         1 UNK         0.1631 
     84 H84        27.4209    2.2871   -1.3247 H         1 UNK         0.0717 
     85 H85        27.5873    1.0044   -0.1618 H         1 UNK         0.0717 
     86 H86        24.7122    1.4245   -3.5290 H         1 UNK         0.0934 
     87 H87        26.2146    2.2843   -3.3450 H         1 UNK         0.0934 
     88 H88        27.4095    0.4596   -4.5956 H         1 UNK         0.0739 
     89 H89        24.8430   -0.8886   -4.5360 H         1 UNK         0.3093 
     90 H90        24.6750   -2.7433   -6.5555 H         1 UNK         0.0818 
     91 H91        26.7069   -3.8191   -7.4956 H         1 UNK         0.0819 
     92 H92        27.1811   -4.3834   -5.8992 H         1 UNK         0.0819 
     93 H93        25.7241   -5.0146   -6.6691 H         1 UNK         0.0819 
     94 H94        25.5895   -3.3440   -3.7993 H         1 UNK         0.3041 
     95 H95        22.4357   -4.0878   -2.7480 H         1 UNK         0.0784 
     96 H96        22.3059   -6.3034   -3.8188 H         1 UNK         0.0793 
     97 H97        24.0003   -6.6184   -3.4803 H         1 UNK         0.0793 
     98 H98        22.8412   -6.4905   -2.1577 H         1 UNK         0.0793 
     99 H99        25.1328   -4.9967   -1.9447 H         1 UNK         0.3024 
    100 H100       25.9217   -1.9923   -0.3174 H         1 UNK         0.1171 
    101 H101       26.0543   -3.2289    1.8249 H         1 UNK         0.0786 
    102 H102       24.3804   -2.8587    1.4514 H         1 UNK         0.0786 
    103 H103       24.9889   -4.4885    1.1973 H         1 UNK         0.0786 
    104 H104       27.1634   -4.4943   -0.0319 H         1 UNK         0.2977 
    105 H105       27.4011    0.3020   -7.0278 H         1 UNK         0.3127 
    106 H106       25.9845    2.3152   -8.5669 H         1 UNK         0.0770 
    107 H107       28.5893    0.8035   -9.2095 H         1 UNK         0.0814 
    108 H108       27.5932    1.6822  -10.3530 H         1 UNK         0.0814 
    109 H109       26.9679    0.2339   -9.5896 H         1 UNK         0.0814 
    110 H110       27.1346    4.1042   -9.7023 H         1 UNK         0.2983 
    111 H111       28.5606    5.8311   -7.8553 H         1 UNK         0.0947 
    112 H112       28.3508    7.4721   -9.7162 H         1 UNK         0.0806 
    113 H113       26.8091    6.7057   -9.3780 H         1 UNK         0.0806 
    114 H114       27.7493    6.2141  -10.7871 H         1 UNK         0.0806 
    115 H115       30.2088    3.9552   -7.8008 H         1 UNK         0.3000 
    116 H116       32.3099    3.2905   -7.8870 H         1 UNK         0.0850 
    117 H117       32.9934    5.7495   -9.5804 H         1 UNK         0.0810 
    118 H118       34.1288    4.7313   -8.7121 H         1 UNK         0.0810 
    119 H119       32.9704    5.6999   -7.8174 H         1 UNK         0.0810 
    120 H120       30.4390    3.3158  -10.6196 H         1 UNK         0.3040 
    121 H121       32.2439    2.2172  -12.5828 H         1 UNK         0.0766 
    122 H122       30.2302    3.5190  -13.2092 H         1 UNK         0.0812 
    123 H123       29.1809    2.3200  -12.4539 H         1 UNK         0.0812 
    124 H124       30.1308    1.8959  -13.8711 H         1 UNK         0.0812 
    125 H125       33.1108    0.6767  -10.9255 H         1 UNK         0.3205 
    126 H126       33.5732   -1.3830  -10.2080 H         1 UNK         0.0754 
    127 H127       32.9146   -3.3512  -11.5520 H         1 UNK         0.0769 
    128 H128       33.3963   -2.0380  -12.6132 H         1 UNK         0.0769 
    129 H129       31.6883   -2.4167  -12.3947 H         1 UNK         0.0769 
    130 H130       31.9716   -0.0788   -8.5852 H         1 UNK         0.2981 
    131 H131       29.5259   -1.3348   -7.9037 H         1 UNK         0.0541 
    132 H132       28.9480   -2.4620   -5.9079 H         1 UNK         0.3459 
    133 H133       30.1013   -3.6069   -5.2313 H         1 UNK         0.3459 
    134 H134       29.6066    0.0866   -5.8643 H         1 UNK         0.0612 
    135 H135       29.8859    0.9845   -7.3252 H         1 UNK         0.0612 
    136 H136       30.5055    2.6395   -5.0372 H         1 UNK         0.0624 
    137 H137       32.0594    2.5362   -4.2438 H         1 UNK         0.0624 
@<TRIPOS>BOND
     1    1    2 1    
     2    1   72 1    
     3    1   73 1    
     4    1   74 1    
     5    2    3 2    
     6    2    4 am   BACKBONE|DICT|INTERRES
     7    4    5 1    
     8    4   75 1    
     9    5    6 1    
    10    5   35 1    
    11    5   76 1    
    12    6    7 1    
    13    6   77 1    
    14    6   78 1    
    15    7    8 1    
    16    8    9 1    
    17    8   79 1    
    18    8   80 1    
    19    9   10 ar   
    20    9   14 ar   
    21   10   11 ar   
    22   10   81 1    
    23   11   12 ar   
    24   11   71 1    
    25   12   13 ar   
    26   12   82 1    
    27   13   14 ar   
    28   13   15 1    
    29   14   83 1    
    30   15   16 1    
    31   15   84 1    
    32   15   85 1    
    33   16   17 1    
    34   17   18 1    
    35   17   86 1    
    36   17   87 1    
    37   18   19 1    
    38   18   37 1    
    39   18   88 1    
    40   19   20 am   BACKBONE|DICT|INTERRES
    41   19   89 1    
    42   20   21 2    
    43   20   22 1    
    44   22   23 1    
    45   22   24 1    
    46   22   90 1    
    47   23   91 1    
    48   23   92 1    
    49   23   93 1    
    50   24   25 am   BACKBONE|DICT|INTERRES
    51   24   94 1    
    52   25   26 2    
    53   25   27 1    
    54   27   28 1    
    55   27   29 1    
    56   27   95 1    
    57   28   96 1    
    58   28   97 1    
    59   28   98 1    
    60   29   30 am   BACKBONE|DICT|INTERRES
    61   29   99 1    
    62   30   31 2    
    63   30   32 1    
    64   32   33 1    
    65   32   34 1    
    66   32  100 1    
    67   33  101 1    
    68   33  102 1    
    69   33  103 1    
    70   34   35 am   BACKBONE|DICT|INTERRES
    71   34  104 1    
    72   35   36 2    
    73   37   38 2    
    74   37   39 am   BACKBONE|DICT|INTERRES
    75   39   40 1    
    76   39  105 1    
    77   40   41 1    
    78   40   42 1    
    79   40  106 1    
    80   41  107 1    
    81   41  108 1    
    82   41  109 1    
    83   42   43 2    
    84   42   44 am   BACKBONE|DICT|INTERRES
    85   44   45 1    
    86   44  110 1    
    87   45   46 1    
    88   45   47 1    
    89   45  111 1    
    90   46  112 1    
    91   46  113 1    
    92   46  114 1    
    93   47   48 2    
    94   47   49 am   BACKBONE|DICT|INTERRES
    95   49   50 1    
    96   49  115 1    
    97   50   51 1    
    98   50   52 1    
    99   50  116 1    
   100   51  117 1    
   101   51  118 1    
   102   51  119 1    
   103   52   53 2    
   104   52   54 am   BACKBONE|DICT|INTERRES
   105   54   55 1    
   106   54  120 1    
   107   55   56 1    
   108   55   57 1    
   109   55  121 1    
   110   56  122 1    
   111   56  123 1    
   112   56  124 1    
   113   57   58 2    
   114   57   59 am   BACKBONE|DICT|INTERRES
   115   59   60 1    
   116   59  125 1    
   117   60   61 1    
   118   60   62 1    
   119   60  126 1    
   120   61  127 1    
   121   61  128 1    
   122   61  129 1    
   123   62   63 2    
   124   62   64 am   BACKBONE|DICT|INTERRES
   125   64   65 1    
   126   64  130 1    
   127   65   66 1    
   128   65   69 1    
   129   65  131 1    
   130   66   67 am   BACKBONE|DICT|INTERRES
   131   66   68 2    
   132   67  132 1    
   133   67  133 1    
   134   69   70 1    
   135   69  134 1    
   136   69  135 1    
   137   70   71 1    
   138   71  136 1    
   139   71  137 1    
@<TRIPOS>SUBSTRUCTURE
     1 UNK         1 GROUP             0       ****    0 ROOT    
