@<TRIPOS>MOLECULE
3R137
137   139    1
SMALL
USER_CHARGES


@<TRIPOS>ATOM
      1 CA         30.4794   -5.1566   -5.2503 C.3       0 UNK        -0.2020 
      2 C          29.3187   -5.4574   -4.3163 C.2       0 UNK         0.4855 
      3 O          28.9235   -6.6154   -4.1790 O.2       0 UNK        -0.5197 
      4 N          28.7626   -4.4217   -3.6847 N.am      1 UNK        -0.4892 
      5 CA         27.5794   -4.4787   -2.8302 C.3       1 UNK         0.0835 
      6 C6         27.8888   -5.0148   -1.4018 C.3       12 UNK        -0.0855 
      7 S7         28.6357   -3.8328   -0.2215 S.3       12 UNK        -0.2931 
      8 C8         30.4156   -3.9370   -0.6137 C.3       12 UNK         0.0378 
      9 C9         30.9540   -2.7741   -1.4493 C.ar      12 UNK        -0.0802 
     10 C10        32.0539   -2.9944   -2.2843 C.ar      12 UNK        -0.0944 
     11 C11        32.6309   -1.9439   -3.0059 C.ar      12 UNK        -0.0787 
     12 C12        32.0978   -0.6567   -2.8842 C.ar      12 UNK        -0.0862 
     13 C13        31.0040   -0.4132   -2.0484 C.ar      12 UNK        -0.0733 
     14 C14        30.4352   -1.4762   -1.3387 C.ar      12 UNK        -0.0832 
     15 C15        30.4846    1.0084   -1.8502 C.3       12 UNK         0.0240 
     16 S16        29.9127    1.7965   -3.3909 S.3       12 UNK        -0.2522 
     17 C17        28.4068    0.8391   -3.7443 C.3       12 UNK        -0.0967 
     18 CA         27.9688    0.9608   -5.2256 C.3       5 UNK         0.0660 
     19 N          27.3254   -0.2658   -5.6967 N.am      5 UNK        -0.4015 
     20 C          26.9665   -0.5126   -6.9631 C.2       4 UNK         0.4946 
     21 O          27.1417    0.2733   -7.8928 O.2       4 UNK        -0.5353 
     22 CA         26.2383   -1.8377   -7.2246 C.3       4 UNK         0.0277 
     23 CB         27.2231   -3.0189   -7.2320 C.3       4 UNK        -0.1981 
     24 N          25.1789   -2.0695   -6.2411 N.am      4 UNK        -0.4209 
     25 C          24.0472   -1.3530   -6.1696 C.2       3 UNK         0.4942 
     26 O          23.7473   -0.4623   -6.9635 O.2       3 UNK        -0.5208 
     27 CA         23.1034   -1.6596   -4.9949 C.3       3 UNK         0.0250 
     28 CB         22.1791   -2.8396   -5.3348 C.3       3 UNK        -0.1990 
     29 N          23.8145   -1.9346   -3.7434 N.am      3 UNK        -0.4232 
     30 C          24.5604   -1.0371   -3.0837 C.2       2 UNK         0.4993 
     31 O          24.7335    0.1228   -3.4557 O.2       2 UNK        -0.5286 
     32 CA         25.2836   -1.5366   -1.8243 C.3       2 UNK         0.0209 
     33 CB         24.3250   -1.5817   -0.6238 C.3       2 UNK        -0.1931 
     34 N          25.9318   -2.8428   -1.9916 N.am      2 UNK        -0.4546 
     35 C          26.8867   -3.1037   -2.8957 C.2       1 UNK         0.5154 
     36 O          27.2274   -2.2991   -3.7678 O.2       1 UNK        -0.5181 
     37 C          27.0957    2.2086   -5.4828 C.2       5 UNK         0.5014 
     38 O          27.6015    3.2028   -6.0050 O.2       5 UNK        -0.5248 
     39 N          25.7895    2.1157   -5.1847 N.am      6 UNK        -0.4434 
     40 CA         24.7867    3.1486   -5.4728 C.3       6 UNK         0.0363 
     41 CB         23.4459    2.7563   -4.8328 C.3       6 UNK        -0.1936 
     42 C          24.5981    3.4291   -6.9756 C.2       6 UNK         0.5081 
     43 O          24.3188    4.5696   -7.3448 O.2       6 UNK        -0.5248 
     44 N          24.7847    2.4031   -7.8166 N.am      7 UNK        -0.4718 
     45 CA         24.7809    2.4994   -9.2799 C.3       7 UNK         0.0273 
     46 CB         24.3727    1.1365   -9.8666 C.3       7 UNK        -0.1935 
     47 C          26.1282    2.9725   -9.8659 C.2       7 UNK         0.5018 
     48 O          26.2531    3.0309  -11.0898 O.2       7 UNK        -0.5186 
     49 N          27.1057    3.2892   -9.0017 N.am      8 UNK        -0.4240 
     50 CA         28.4756    3.7217   -9.3016 C.3       8 UNK         0.0235 
     51 CB         28.4965    5.0194  -10.1380 C.3       8 UNK        -0.2000 
     52 C          29.3695    2.6146   -9.8928 C.2       8 UNK         0.4941 
     53 O          30.4338    2.9228  -10.4314 O.2       8 UNK        -0.5273 
     54 N          28.9785    1.3442   -9.7280 N.am      9 UNK        -0.4262 
     55 CA         29.7757    0.1622  -10.0547 C.3       9 UNK         0.0264 
     56 CB         28.8543   -0.9200  -10.6482 C.3       9 UNK        -0.1955 
     57 C          30.5111   -0.3083   -8.7882 C.2       9 UNK         0.5031 
     58 O          30.3819   -1.4642   -8.3792 O.2       9 UNK        -0.5390 
     59 N          31.2603    0.6133   -8.1689 N.am      10 UNK        -0.4204 
     60 CA         31.9799    0.4376   -6.9065 C.3       10 UNK         0.0237 
     61 CB         32.2448    1.8271   -6.2973 C.3       10 UNK        -0.1985 
     62 C          33.2663   -0.3924   -7.0804 C.2       10 UNK         0.4970 
     63 O          34.3641    0.1084   -6.8313 O.2       10 UNK        -0.4914 
     64 N          33.0957   -1.6471   -7.5112 N.am      11 UNK        -0.4285 
     65 CA         34.1383   -2.6735   -7.6918 C.3       11 UNK         0.1007 
     66 C          35.1485   -2.3921   -8.8460 C.2       11 UNK         0.5703 
     67 N          34.8765   -1.4609   -9.7528 N.am      11 UNK        -0.7361 
     68 O          36.1811   -3.0511   -8.9463 O.2       11 UNK        -0.4986 
     69 C69        34.8435   -3.0716   -6.3610 C.3       12 UNK        -0.0947 
     70 S70        33.6566   -3.5382   -5.0554 S.3       12 UNK        -0.2240 
     71 C71        33.8685   -2.1753   -3.8654 C.3       12 UNK         0.0194 
     72 H72        31.3838   -5.6487   -4.8940 H         1 UNK         0.0906 
     73 H73        30.2622   -5.5238   -6.2528 H         1 UNK         0.0906 
     74 H74        30.6772   -4.0867   -5.3188 H         1 UNK         0.0906 
     75 H75        29.0810   -3.4765   -3.8613 H         1 UNK         0.3140 
     76 H76        26.8774   -5.1725   -3.2985 H         1 UNK         0.1085 
     77 H77        26.9604   -5.3645   -0.9477 H         1 UNK         0.0836 
     78 H78        28.5148   -5.9065   -1.4598 H         1 UNK         0.0836 
     79 H79        30.6231   -4.8870   -1.1085 H         1 UNK         0.0731 
     80 H80        30.9686   -3.9573    0.3262 H         1 UNK         0.0731 
     81 H81        32.4815   -3.9852   -2.3572 H         1 UNK         0.1312 
     82 H82        32.5501    0.1679   -3.4176 H         1 UNK         0.1406 
     83 H83        29.6073   -1.2825   -0.6710 H         1 UNK         0.1631 
     84 H84        31.2874    1.6151   -1.4291 H         1 UNK         0.0717 
     85 H85        29.6729    1.0311   -1.1214 H         1 UNK         0.0717 
     86 H86        28.6417   -0.1995   -3.5124 H         1 UNK         0.0934 
     87 H87        27.6100    1.1239   -3.0540 H         1 UNK         0.0934 
     88 H88        28.8650    1.0678   -5.8415 H         1 UNK         0.0739 
     89 H89        27.1632   -0.9868   -4.9952 H         1 UNK         0.3093 
     90 H90        25.7774   -1.7746   -8.2128 H         1 UNK         0.0818 
     91 H91        26.7197   -3.9541   -7.4767 H         1 UNK         0.0819 
     92 H92        28.0043   -2.8679   -7.9783 H         1 UNK         0.0819 
     93 H93        27.7192   -3.1466   -6.2700 H         1 UNK         0.0819 
     94 H94        25.3628   -2.7540   -5.5228 H         1 UNK         0.3041 
     95 H95        22.4819   -0.7755   -4.8358 H         1 UNK         0.0784 
     96 H96        21.6250   -2.6472   -6.2548 H         1 UNK         0.0793 
     97 H97        22.7375   -3.7655   -5.4785 H         1 UNK         0.0793 
     98 H98        21.4449   -3.0083   -4.5467 H         1 UNK         0.0793 
     99 H99        23.7374   -2.8669   -3.3633 H         1 UNK         0.3024 
    100 H100       26.0704   -0.8120   -1.6018 H         1 UNK         0.1171 
    101 H101       24.8561   -1.8204    0.2980 H         1 UNK         0.0786 
    102 H102       23.8409   -0.6153   -0.4746 H         1 UNK         0.0786 
    103 H103       23.5374   -2.3238   -0.7594 H         1 UNK         0.0786 
    104 H104       25.7167   -3.5455   -1.2990 H         1 UNK         0.2977 
    105 H105       25.4500    1.2817   -4.7066 H         1 UNK         0.3127 
    106 H106       25.1282    4.0759   -5.0083 H         1 UNK         0.0770 
    107 H107       23.5386    2.6490   -3.7519 H         1 UNK         0.0814 
    108 H108       23.0719    1.8126   -5.2320 H         1 UNK         0.0814 
    109 H109       22.6853    3.5156   -5.0190 H         1 UNK         0.0814 
    110 H110       24.9897    1.4890   -7.4307 H         1 UNK         0.2983 
    111 H111       24.0301    3.2329   -9.5813 H         1 UNK         0.0947 
    112 H112       25.1004    0.3604   -9.6294 H         1 UNK         0.0806 
    113 H113       24.2892    1.1837  -10.9531 H         1 UNK         0.0806 
    114 H114       23.4045    0.8142   -9.4830 H         1 UNK         0.0806 
    115 H115       26.9095    3.1740   -8.0132 H         1 UNK         0.3000 
    116 H116       28.9178    3.9597   -8.3331 H         1 UNK         0.0850 
    117 H117       27.8615    5.7872   -9.6960 H         1 UNK         0.0810 
    118 H118       28.1594    4.8505  -11.1609 H         1 UNK         0.0810 
    119 H119       29.5052    5.4301  -10.1961 H         1 UNK         0.0810 
    120 H120       28.1400    1.1570   -9.1789 H         1 UNK         0.3040 
    121 H121       30.5311    0.4064  -10.8044 H         1 UNK         0.0766 
    122 H122       29.4226   -1.8093  -10.9232 H         1 UNK         0.0812 
    123 H123       28.3546   -0.5622  -11.5484 H         1 UNK         0.0812 
    124 H124       28.0846   -1.2302   -9.9414 H         1 UNK         0.0812 
    125 H125       31.3375    1.5215   -8.6067 H         1 UNK         0.3205 
    126 H126       31.3355   -0.1090   -6.2137 H         1 UNK         0.0754 
    127 H127       32.7411    1.7427   -5.3299 H         1 UNK         0.0769 
    128 H128       31.3146    2.3719   -6.1341 H         1 UNK         0.0769 
    129 H129       32.8820    2.4367   -6.9393 H         1 UNK         0.0769 
    130 H130       32.1474   -1.9300   -7.7435 H         1 UNK         0.2981 
    131 H131       33.5941   -3.5556   -8.0308 H         1 UNK         0.0541 
    132 H132       35.5307   -1.2952  -10.5013 H         1 UNK         0.3459 
    133 H133       34.0336   -0.9150   -9.6859 H         1 UNK         0.3459 
    134 H134       35.4952   -3.9320   -6.5215 H         1 UNK         0.0612 
    135 H135       35.4923   -2.2675   -6.0106 H         1 UNK         0.0612 
    136 H136       34.1245   -1.2614   -4.4015 H         1 UNK         0.0624 
    137 H137       34.7174   -2.3999   -3.2188 H         1 UNK         0.0624 
@<TRIPOS>BOND
     1    1    2 1    
     2    1   72 1    
     3    1   73 1    
     4    1   74 1    
     5    2    3 2    
     6    2    4 am   BACKBONE|DICT|INTERRES
     7    4    5 1    
     8    4   75 1    
     9    5    6 1    
    10    5   35 1    
    11    5   76 1    
    12    6    7 1    
    13    6   77 1    
    14    6   78 1    
    15    7    8 1    
    16    8    9 1    
    17    8   79 1    
    18    8   80 1    
    19    9   10 ar   
    20    9   14 ar   
    21   10   11 ar   
    22   10   81 1    
    23   11   12 ar   
    24   11   71 1    
    25   12   13 ar   
    26   12   82 1    
    27   13   14 ar   
    28   13   15 1    
    29   14   83 1    
    30   15   16 1    
    31   15   84 1    
    32   15   85 1    
    33   16   17 1    
    34   17   18 1    
    35   17   86 1    
    36   17   87 1    
    37   18   19 1    
    38   18   37 1    
    39   18   88 1    
    40   19   20 am   BACKBONE|DICT|INTERRES
    41   19   89 1    
    42   20   21 2    
    43   20   22 1    
    44   22   23 1    
    45   22   24 1    
    46   22   90 1    
    47   23   91 1    
    48   23   92 1    
    49   23   93 1    
    50   24   25 am   BACKBONE|DICT|INTERRES
    51   24   94 1    
    52   25   26 2    
    53   25   27 1    
    54   27   28 1    
    55   27   29 1    
    56   27   95 1    
    57   28   96 1    
    58   28   97 1    
    59   28   98 1    
    60   29   30 am   BACKBONE|DICT|INTERRES
    61   29   99 1    
    62   30   31 2    
    63   30   32 1    
    64   32   33 1    
    65   32   34 1    
    66   32  100 1    
    67   33  101 1    
    68   33  102 1    
    69   33  103 1    
    70   34   35 am   BACKBONE|DICT|INTERRES
    71   34  104 1    
    72   35   36 2    
    73   37   38 2    
    74   37   39 am   BACKBONE|DICT|INTERRES
    75   39   40 1    
    76   39  105 1    
    77   40   41 1    
    78   40   42 1    
    79   40  106 1    
    80   41  107 1    
    81   41  108 1    
    82   41  109 1    
    83   42   43 2    
    84   42   44 am   BACKBONE|DICT|INTERRES
    85   44   45 1    
    86   44  110 1    
    87   45   46 1    
    88   45   47 1    
    89   45  111 1    
    90   46  112 1    
    91   46  113 1    
    92   46  114 1    
    93   47   48 2    
    94   47   49 am   BACKBONE|DICT|INTERRES
    95   49   50 1    
    96   49  115 1    
    97   50   51 1    
    98   50   52 1    
    99   50  116 1    
   100   51  117 1    
   101   51  118 1    
   102   51  119 1    
   103   52   53 2    
   104   52   54 am   BACKBONE|DICT|INTERRES
   105   54   55 1    
   106   54  120 1    
   107   55   56 1    
   108   55   57 1    
   109   55  121 1    
   110   56  122 1    
   111   56  123 1    
   112   56  124 1    
   113   57   58 2    
   114   57   59 am   BACKBONE|DICT|INTERRES
   115   59   60 1    
   116   59  125 1    
   117   60   61 1    
   118   60   62 1    
   119   60  126 1    
   120   61  127 1    
   121   61  128 1    
   122   61  129 1    
   123   62   63 2    
   124   62   64 am   BACKBONE|DICT|INTERRES
   125   64   65 1    
   126   64  130 1    
   127   65   66 1    
   128   65   69 1    
   129   65  131 1    
   130   66   67 am   BACKBONE|DICT|INTERRES
   131   66   68 2    
   132   67  132 1    
   133   67  133 1    
   134   69   70 1    
   135   69  134 1    
   136   69  135 1    
   137   70   71 1    
   138   71  136 1    
   139   71  137 1    
@<TRIPOS>SUBSTRUCTURE
     1 UNK         1 GROUP             0       ****    0 ROOT    
