@<TRIPOS>MOLECULE
3R137
137   139    1
SMALL
USER_CHARGES


@<TRIPOS>ATOM
      1 CA         31.7082   -0.0434   -1.5990 C.3       0 UNK        -0.2020 
      2 C          30.5813   -0.9626   -1.1515 C.2       0 UNK         0.4855 
      3 O          30.1346   -0.8688   -0.0083 O.2       0 UNK        -0.5197 
      4 N          30.1132   -1.8356   -2.0546 N.am      1 UNK        -0.4892 
      5 CA         29.0513   -2.8385   -1.8494 C.3       1 UNK         0.0835 
      6 C6         29.3818   -3.9182   -0.7730 C.3       12 UNK        -0.0855 
      7 S7         31.0668   -4.6239   -0.8475 S.3       12 UNK        -0.2931 
      8 C8         30.9017   -5.9246   -2.1141 C.3       12 UNK         0.0378 
      9 C9         30.8550   -5.3368   -3.5169 C.ar      12 UNK        -0.0802 
     10 C10        31.9341   -4.5863   -3.9944 C.ar      12 UNK        -0.0944 
     11 C11        31.8840   -3.9952   -5.2583 C.ar      12 UNK        -0.0787 
     12 C12        30.7555   -4.1796   -6.0597 C.ar      12 UNK        -0.0862 
     13 C13        29.6694   -4.9269   -5.5944 C.ar      12 UNK        -0.0733 
     14 C14        29.7299   -5.5172   -4.3279 C.ar      12 UNK        -0.0832 
     15 C15        28.4157   -5.0615   -6.4471 C.3       12 UNK         0.0240 
     16 S16        27.0094   -4.1464   -5.7346 S.3       12 UNK        -0.2522 
     17 C17        27.6181   -2.4244   -5.7340 C.3       12 UNK        -0.0967 
     18 CA         26.9070   -1.5294   -6.7736 C.3       5 UNK         0.0660 
     19 N          25.4470   -1.5198   -6.6336 N.am      5 UNK        -0.4015 
     20 C          24.6061   -0.9944   -7.5383 C.2       4 UNK         0.4946 
     21 O          24.9837   -0.4414   -8.5726 O.2       4 UNK        -0.5353 
     22 CA         23.0988   -1.0520   -7.2330 C.3       4 UNK         0.0277 
     23 CB         22.4780   -2.3143   -7.8513 C.3       4 UNK        -0.1981 
     24 N          22.7842   -1.0011   -5.8025 N.am      4 UNK        -0.4209 
     25 C          23.0563    0.0368   -4.9994 C.2       3 UNK         0.4942 
     26 O          23.5728    1.0828   -5.3947 O.2       3 UNK        -0.5208 
     27 CA         22.7499   -0.1182   -3.4958 C.3       3 UNK         0.0250 
     28 CB         22.0667   -1.4530   -3.1165 C.3       3 UNK        -0.1990 
     29 N          23.9568    0.0886   -2.6835 N.am      3 UNK        -0.4232 
     30 C          25.1155   -0.5802   -2.7908 C.2       2 UNK         0.4993 
     31 O          25.3021   -1.4820   -3.6105 O.2       2 UNK        -0.5286 
     32 CA         26.2601   -0.1184   -1.8654 C.3       2 UNK         0.0209 
     33 CB         25.8162    0.0003   -0.3896 C.3       2 UNK        -0.1931 
     34 N          27.4756   -0.9390   -1.9814 N.am      2 UNK        -0.4546 
     35 C          27.6471   -2.2220   -1.6201 C.2       1 UNK         0.5154 
     36 O          26.7597   -2.9159   -1.1188 O.2       1 UNK        -0.5181 
     37 C          27.5030   -0.1107   -6.7428 C.2       5 UNK         0.5014 
     38 O          28.5182    0.1198   -7.4000 O.2       5 UNK        -0.5248 
     39 N          26.8533    0.8237   -6.0302 N.am      6 UNK        -0.4434 
     40 CA         27.2413    2.2361   -5.9789 C.3       6 UNK         0.0363 
     41 CB         26.4102    2.9705   -4.9158 C.3       6 UNK        -0.1936 
     42 C          27.1203    2.9457   -7.3403 C.2       6 UNK         0.5081 
     43 O          27.8767    3.8813   -7.5979 O.2       6 UNK        -0.5248 
     44 N          26.1904    2.4819   -8.1859 N.am      7 UNK        -0.4718 
     45 CA         26.0243    2.9457   -9.5611 C.3       7 UNK         0.0273 
     46 CB         24.5362    2.8849   -9.9446 C.3       7 UNK        -0.1935 
     47 C          26.8715    2.1146  -10.5360 C.2       7 UNK         0.5018 
     48 O          27.5269    2.6912  -11.4044 O.2       7 UNK        -0.5186 
     49 N          26.8242    0.7813  -10.3956 N.am      8 UNK        -0.4240 
     50 CA         27.4434   -0.1664  -11.3249 C.3       8 UNK         0.0235 
     51 CB         26.8516   -1.5673  -11.0993 C.3       8 UNK        -0.2000 
     52 C          28.9785   -0.2157  -11.2563 C.2       8 UNK         0.4941 
     53 O          29.6120   -0.3492  -12.3046 O.2       8 UNK        -0.5273 
     54 N          29.5449   -0.1398  -10.0449 N.am      9 UNK        -0.4262 
     55 CA         30.9824   -0.2835   -9.7929 C.3       9 UNK         0.0264 
     56 CB         31.2253   -1.5657   -8.9785 C.3       9 UNK        -0.1955 
     57 C          31.5758    0.9205   -9.0512 C.2       9 UNK         0.5031 
     58 O          32.7317    1.2637   -9.3065 O.2       9 UNK        -0.5390 
     59 N          30.8055    1.5120   -8.1262 N.am      10 UNK        -0.4204 
     60 CA         31.1815    2.5487   -7.1564 C.3       10 UNK         0.0237 
     61 CB         31.7110    3.8335   -7.8266 C.3       10 UNK        -0.1985 
     62 C          32.1308    2.0043   -6.0768 C.2       10 UNK         0.4970 
     63 O          31.7340    1.9477   -4.9127 O.2       10 UNK        -0.4914 
     64 N          33.3273    1.5813   -6.5084 N.am      11 UNK        -0.4285 
     65 CA         34.3927    0.9001   -5.7549 C.3       11 UNK         0.1007 
     66 C          34.6823    1.4661   -4.3303 C.2       11 UNK         0.5703 
     67 N          34.9087    0.6277   -3.3270 N.am      11 UNK        -0.7361 
     68 O          34.7765    2.6786   -4.1475 O.2       11 UNK        -0.4986 
     69 C69        34.3087   -0.6509   -5.8840 C.3       12 UNK        -0.0947 
     70 S70        32.8015   -1.4097   -5.1950 S.3       12 UNK        -0.2240 
     71 C71        33.0331   -3.1274   -5.7396 C.3       12 UNK         0.0194 
     72 H72        32.6522   -0.3655   -1.1607 H         1 UNK         0.0906 
     73 H73        31.8208   -0.0328   -2.6829 H         1 UNK         0.0906 
     74 H74        31.5137    0.9791   -1.2766 H         1 UNK         0.0906 
     75 H75        30.5518   -1.8683   -2.9654 H         1 UNK         0.3140 
     76 H76        28.9621   -3.3539   -2.8051 H         1 UNK         0.1085 
     77 H77        29.2630   -3.4914    0.2247 H         1 UNK         0.0836 
     78 H78        28.6649   -4.7396   -0.8282 H         1 UNK         0.0836 
     79 H79        30.0190   -6.5310   -1.9054 H         1 UNK         0.0731 
     80 H80        31.7593   -6.5950   -2.0433 H         1 UNK         0.0731 
     81 H81        32.8005   -4.4340   -3.3650 H         1 UNK         0.1312 
     82 H82        30.7114   -3.7163   -7.0349 H         1 UNK         0.1406 
     83 H83        28.8847   -6.0863   -3.9644 H         1 UNK         0.1631 
     84 H84        28.1476   -6.1156   -6.5306 H         1 UNK         0.0717 
     85 H85        28.5926   -4.7074   -7.4640 H         1 UNK         0.0717 
     86 H86        27.4939   -2.0254   -4.7281 H         1 UNK         0.0934 
     87 H87        28.6928   -2.4126   -5.9150 H         1 UNK         0.0934 
     88 H88        27.1289   -1.9407   -7.7597 H         1 UNK         0.0739 
     89 H89        25.0831   -1.9026   -5.7684 H         1 UNK         0.3093 
     90 H90        22.6405   -0.1797   -7.7042 H         1 UNK         0.0818 
     91 H91        21.3951   -2.3272   -7.7263 H         1 UNK         0.0819 
     92 H92        22.6787   -2.3619   -8.9227 H         1 UNK         0.0819 
     93 H93        22.8803   -3.2243   -7.4041 H         1 UNK         0.0819 
     94 H94        22.3765   -1.8293   -5.3930 H         1 UNK         0.3041 
     95 H95        22.0612    0.6897   -3.2439 H         1 UNK         0.0784 
     96 H96        21.1234   -1.5826   -3.6487 H         1 UNK         0.0793 
     97 H97        22.6967   -2.3173   -3.3310 H         1 UNK         0.0793 
     98 H98        21.8329   -1.4791   -2.0521 H         1 UNK         0.0793 
     99 H99        23.9027    0.8459   -2.0170 H         1 UNK         0.3024 
    100 H100       26.5452    0.8777   -2.2048 H         1 UNK         0.1171 
    101 H101       25.0743    0.7878   -0.2557 H         1 UNK         0.0786 
    102 H102       25.3749   -0.9267   -0.0218 H         1 UNK         0.0786 
    103 H103       26.6586    0.2467    0.2573 H         1 UNK         0.0786 
    104 H104       28.2763   -0.4759   -2.3866 H         1 UNK         0.2977 
    105 H105       25.9948    0.5675   -5.5607 H         1 UNK         0.3127 
    106 H106       28.2866    2.2762   -5.6703 H         1 UNK         0.0770 
    107 H107       25.3509    2.9913   -5.1718 H         1 UNK         0.0814 
    108 H108       26.7374    4.0066   -4.8180 H         1 UNK         0.0814 
    109 H109       26.5130    2.5079   -3.9357 H         1 UNK         0.0814 
    110 H110       25.6251    1.6930   -7.9005 H         1 UNK         0.2983 
    111 H111       26.3477    3.9864   -9.6401 H         1 UNK         0.0947 
    112 H112       24.3833    3.2312  -10.9677 H         1 UNK         0.0806 
    113 H113       23.9350    3.5210   -9.2947 H         1 UNK         0.0806 
    114 H114       24.1381    1.8714   -9.8805 H         1 UNK         0.0806 
    115 H115       26.2186    0.3851   -9.6791 H         1 UNK         0.3000 
    116 H116       27.1757    0.1457  -12.3370 H         1 UNK         0.0850 
    117 H117       27.2539   -2.2817  -11.8189 H         1 UNK         0.0810 
    118 H118       25.7677   -1.5642  -11.2171 H         1 UNK         0.0810 
    119 H119       27.0775   -1.9468  -10.1033 H         1 UNK         0.0810 
    120 H120       28.9516   -0.0229   -9.2283 H         1 UNK         0.3040 
    121 H121       31.5291   -0.3742  -10.7338 H         1 UNK         0.0766 
    122 H122       32.2898   -1.7124   -8.7906 H         1 UNK         0.0812 
    123 H123       30.8638   -2.4470   -9.5083 H         1 UNK         0.0812 
    124 H124       30.7264   -1.5260   -8.0094 H         1 UNK         0.0812 
    125 H125       29.9059    1.0735   -7.9314 H         1 UNK         0.3205 
    126 H126       30.2588    2.8228   -6.6476 H         1 UNK         0.0754 
    127 H127       31.8860    4.6110   -7.0821 H         1 UNK         0.0769 
    128 H128       30.9877    4.2273   -8.5409 H         1 UNK         0.0769 
    129 H129       32.6515    3.6772   -8.3545 H         1 UNK         0.0769 
    130 H130       33.4824    1.6473   -7.5091 H         1 UNK         0.2981 
    131 H131       35.2959    1.1754   -6.3003 H         1 UNK         0.0541 
    132 H132       34.8319   -0.3673   -3.4658 H         1 UNK         0.3459 
    133 H133       35.1273    0.9980   -2.4160 H         1 UNK         0.3459 
    134 H134       35.1815   -1.1234   -5.4307 H         1 UNK         0.0612 
    135 H135       34.3537   -0.9173   -6.9413 H         1 UNK         0.0612 
    136 H136       33.1036   -3.1603   -6.8277 H         1 UNK         0.0624 
    137 H137       33.9797   -3.5079   -5.3527 H         1 UNK         0.0624 
@<TRIPOS>BOND
     1    1    2 1    
     2    1   72 1    
     3    1   73 1    
     4    1   74 1    
     5    2    3 2    
     6    2    4 am   BACKBONE|DICT|INTERRES
     7    4    5 1    
     8    4   75 1    
     9    5    6 1    
    10    5   35 1    
    11    5   76 1    
    12    6    7 1    
    13    6   77 1    
    14    6   78 1    
    15    7    8 1    
    16    8    9 1    
    17    8   79 1    
    18    8   80 1    
    19    9   10 ar   
    20    9   14 ar   
    21   10   11 ar   
    22   10   81 1    
    23   11   12 ar   
    24   11   71 1    
    25   12   13 ar   
    26   12   82 1    
    27   13   14 ar   
    28   13   15 1    
    29   14   83 1    
    30   15   16 1    
    31   15   84 1    
    32   15   85 1    
    33   16   17 1    
    34   17   18 1    
    35   17   86 1    
    36   17   87 1    
    37   18   19 1    
    38   18   37 1    
    39   18   88 1    
    40   19   20 am   BACKBONE|DICT|INTERRES
    41   19   89 1    
    42   20   21 2    
    43   20   22 1    
    44   22   23 1    
    45   22   24 1    
    46   22   90 1    
    47   23   91 1    
    48   23   92 1    
    49   23   93 1    
    50   24   25 am   BACKBONE|DICT|INTERRES
    51   24   94 1    
    52   25   26 2    
    53   25   27 1    
    54   27   28 1    
    55   27   29 1    
    56   27   95 1    
    57   28   96 1    
    58   28   97 1    
    59   28   98 1    
    60   29   30 am   BACKBONE|DICT|INTERRES
    61   29   99 1    
    62   30   31 2    
    63   30   32 1    
    64   32   33 1    
    65   32   34 1    
    66   32  100 1    
    67   33  101 1    
    68   33  102 1    
    69   33  103 1    
    70   34   35 am   BACKBONE|DICT|INTERRES
    71   34  104 1    
    72   35   36 2    
    73   37   38 2    
    74   37   39 am   BACKBONE|DICT|INTERRES
    75   39   40 1    
    76   39  105 1    
    77   40   41 1    
    78   40   42 1    
    79   40  106 1    
    80   41  107 1    
    81   41  108 1    
    82   41  109 1    
    83   42   43 2    
    84   42   44 am   BACKBONE|DICT|INTERRES
    85   44   45 1    
    86   44  110 1    
    87   45   46 1    
    88   45   47 1    
    89   45  111 1    
    90   46  112 1    
    91   46  113 1    
    92   46  114 1    
    93   47   48 2    
    94   47   49 am   BACKBONE|DICT|INTERRES
    95   49   50 1    
    96   49  115 1    
    97   50   51 1    
    98   50   52 1    
    99   50  116 1    
   100   51  117 1    
   101   51  118 1    
   102   51  119 1    
   103   52   53 2    
   104   52   54 am   BACKBONE|DICT|INTERRES
   105   54   55 1    
   106   54  120 1    
   107   55   56 1    
   108   55   57 1    
   109   55  121 1    
   110   56  122 1    
   111   56  123 1    
   112   56  124 1    
   113   57   58 2    
   114   57   59 am   BACKBONE|DICT|INTERRES
   115   59   60 1    
   116   59  125 1    
   117   60   61 1    
   118   60   62 1    
   119   60  126 1    
   120   61  127 1    
   121   61  128 1    
   122   61  129 1    
   123   62   63 2    
   124   62   64 am   BACKBONE|DICT|INTERRES
   125   64   65 1    
   126   64  130 1    
   127   65   66 1    
   128   65   69 1    
   129   65  131 1    
   130   66   67 am   BACKBONE|DICT|INTERRES
   131   66   68 2    
   132   67  132 1    
   133   67  133 1    
   134   69   70 1    
   135   69  134 1    
   136   69  135 1    
   137   70   71 1    
   138   71  136 1    
   139   71  137 1    
@<TRIPOS>SUBSTRUCTURE
     1 UNK         1 GROUP             0       ****    0 ROOT    
