@<TRIPOS>MOLECULE
3R137
137   139    1
SMALL
USER_CHARGES


@<TRIPOS>ATOM
      1 CA         29.4975   -0.4619   -2.5129 C.3       0 UNK        -0.2020 
      2 C          29.6789   -0.4552   -0.9970 C.2       0 UNK         0.4855 
      3 O          30.2653    0.4854   -0.4650 O.2       0 UNK        -0.5197 
      4 N          29.2136   -1.4720   -0.2584 N.am      1 UNK        -0.4892 
      5 CA         28.4333   -2.6252   -0.7249 C.3       1 UNK         0.0835 
      6 C6         28.4499   -3.7925    0.2975 C.3       12 UNK        -0.0855 
      7 S7         30.1240   -4.3098    0.8072 S.3       12 UNK        -0.2931 
      8 C8         30.4987   -5.6265   -0.3958 C.3       12 UNK         0.0378 
      9 C9         30.7846   -5.0683   -1.7833 C.ar      12 UNK        -0.0802 
     10 C10        31.8694   -4.2072   -1.9784 C.ar      12 UNK        -0.0944 
     11 C11        32.1534   -3.6893   -3.2450 C.ar      12 UNK        -0.0787 
     12 C12        31.3523   -4.0638   -4.3271 C.ar      12 UNK        -0.0862 
     13 C13        30.2504   -4.9037   -4.1444 C.ar      12 UNK        -0.0733 
     14 C14        29.9751   -5.4121   -2.8711 C.ar      12 UNK        -0.0832 
     15 C15        29.3515   -5.2445   -5.3251 C.3       12 UNK         0.0240 
     16 S16        27.7587   -4.3635   -5.2426 S.3       12 UNK        -0.2522 
     17 C17        28.2715   -2.6116   -5.2597 C.3       12 UNK        -0.0967 
     18 CA         27.7065   -1.8079   -6.4538 C.3       5 UNK         0.0660 
     19 N          26.2479   -1.8777   -6.5524 N.am      5 UNK        -0.4015 
     20 C          25.5446   -1.6229   -7.6645 C.2       4 UNK         0.4946 
     21 O          26.0555   -1.3753   -8.7565 O.2       4 UNK        -0.5353 
     22 CA         24.0091   -1.6359   -7.5432 C.3       4 UNK         0.0277 
     23 CB         23.4570   -3.0268   -7.8944 C.3       4 UNK        -0.1981 
     24 N          23.5241   -1.2430   -6.2167 N.am      4 UNK        -0.4209 
     25 C          23.6491   -0.0140   -5.6948 C.2       3 UNK         0.4942 
     26 O          24.1454    0.9365   -6.2957 O.2       3 UNK        -0.5208 
     27 CA         23.2135    0.1661   -4.2294 C.3       3 UNK         0.0250 
     28 CB         21.7058    0.4508   -4.1436 C.3       3 UNK        -0.1990 
     29 N          23.5530   -0.9779   -3.3732 N.am      3 UNK        -0.4232 
     30 C          24.7941   -1.4533   -3.1995 C.2       2 UNK         0.4993 
     31 O          25.7876   -0.9753   -3.7526 O.2       2 UNK        -0.5286 
     32 CA         24.9324   -2.7154   -2.3325 C.3       2 UNK         0.0209 
     33 CB         24.4302   -3.9495   -3.1021 C.3       2 UNK        -0.1931 
     34 N          26.3195   -2.9531   -1.9230 N.am      2 UNK        -0.4546 
     35 C          26.9733   -2.2198   -1.0131 C.2       1 UNK         0.5154 
     36 O          26.4549   -1.2947   -0.3814 O.2       1 UNK        -0.5181 
     37 C          28.1599   -0.3404   -6.3630 C.2       5 UNK         0.5014 
     38 O          29.1233    0.0414   -7.0254 O.2       5 UNK        -0.5248 
     39 N          27.4538    0.4690   -5.5609 N.am      6 UNK        -0.4434 
     40 CA         27.6862    1.9089   -5.4316 C.3       6 UNK         0.0363 
     41 CB         26.7959    2.4796   -4.3177 C.3       6 UNK        -0.1936 
     42 C          27.4662    2.6586   -6.7571 C.2       6 UNK         0.5081 
     43 O          28.2953    3.4910   -7.1239 O.2       6 UNK        -0.5248 
     44 N          26.3944    2.3018   -7.4773 N.am      7 UNK        -0.4718 
     45 CA         26.0166    2.8471   -8.7851 C.3       7 UNK         0.0273 
     46 CB         24.4957    2.6910   -8.9618 C.3       7 UNK        -0.1935 
     47 C          26.7746    2.2346   -9.9824 C.2       7 UNK         0.5018 
     48 O          26.4139    2.5332  -11.1219 O.2       7 UNK        -0.5186 
     49 N          27.8042    1.4113   -9.7313 N.am      8 UNK        -0.4240 
     50 CA         28.6456    0.7830  -10.7538 C.3       8 UNK         0.0235 
     51 CB         29.6080   -0.2238  -10.1085 C.3       8 UNK        -0.2000 
     52 C          29.3944    1.7136  -11.7425 C.2       8 UNK         0.4941 
     53 O          29.5116    1.3117  -12.8994 O.2       8 UNK        -0.5273 
     54 N          29.8903    2.9182  -11.4062 N.am      9 UNK        -0.4262 
     55 CA         30.0292    3.5785  -10.1064 C.3       9 UNK         0.0264 
     56 CB         30.2808    5.0762  -10.3480 C.3       9 UNK        -0.1955 
     57 C          31.1781    2.9906   -9.2762 C.2       9 UNK         0.5031 
     58 O          32.2362    2.6980   -9.8362 O.2       9 UNK        -0.5390 
     59 N          30.9592    2.9178   -7.9558 N.am      10 UNK        -0.4204 
     60 CA         31.9290    2.6055   -6.8990 C.3       10 UNK         0.0237 
     61 CB         32.8922    3.7964   -6.7058 C.3       10 UNK        -0.1985 
     62 C          32.6708    1.2674   -7.0933 C.2       10 UNK         0.4970 
     63 O          33.8944    1.2583   -7.2482 O.2       10 UNK        -0.4914 
     64 N          31.9078    0.1691   -7.0415 N.am      11 UNK        -0.4285 
     65 CA         32.3600   -1.2300   -7.1250 C.3       11 UNK         0.1007 
     66 C          32.8142   -1.6606   -8.5517 C.2       11 UNK         0.5703 
     67 N          33.1206   -2.9372   -8.7460 N.am      11 UNK        -0.7361 
     68 O          32.8740   -0.8745   -9.4940 O.2       11 UNK        -0.4986 
     69 C69        33.4074   -1.6123   -6.0336 C.3       12 UNK        -0.0947 
     70 S70        32.8835   -1.2130   -4.3276 S.3       12 UNK        -0.2240 
     71 C71        33.3303   -2.7370   -3.4275 C.3       12 UNK         0.0194 
     72 H72        28.4441   -0.3795   -2.7780 H         1 UNK         0.0906 
     73 H73        30.0169    0.3839   -2.9633 H         1 UNK         0.0906 
     74 H74        29.9139   -1.3678   -2.9521 H         1 UNK         0.0906 
     75 H75        29.3507   -1.4374    0.7413 H         1 UNK         0.3140 
     76 H76        28.8758   -2.9847   -1.6548 H         1 UNK         0.1085 
     77 H77        27.9204   -4.6607   -0.1002 H         1 UNK         0.0836 
     78 H78        27.9126   -3.5082    1.2050 H         1 UNK         0.0836 
     79 H79        31.3772   -6.1743   -0.0518 H         1 UNK         0.0731 
     80 H80        29.6797   -6.3471   -0.4178 H         1 UNK         0.0731 
     81 H81        32.4880   -3.9351   -1.1338 H         1 UNK         0.1312 
     82 H82        31.5692   -3.6782   -5.3119 H         1 UNK         0.1406 
     83 H83        29.1269   -6.0689   -2.7309 H         1 UNK         0.1631 
     84 H84        29.1619   -6.3187   -5.3391 H         1 UNK         0.0717 
     85 H85        29.8418   -5.0081   -6.2709 H         1 UNK         0.0717 
     86 H86        27.9567   -2.1789   -4.3116 H         1 UNK         0.0934 
     87 H87        29.3585   -2.5426   -5.2681 H         1 UNK         0.0934 
     88 H88        28.1310   -2.2269   -7.3689 H         1 UNK         0.0739 
     89 H89        25.7562   -2.0236   -5.6821 H         1 UNK         0.3093 
     90 H90        23.6187   -0.9186   -8.2685 H         1 UNK         0.0818 
     91 H91        22.3668   -3.0335   -7.8949 H         1 UNK         0.0819 
     92 H92        23.7809   -3.3341   -8.8899 H         1 UNK         0.0819 
     93 H93        23.7990   -3.7880   -7.1918 H         1 UNK         0.0819 
     94 H94        23.0956   -1.9626   -5.6532 H         1 UNK         0.3041 
     95 H95        23.7461    1.0347   -3.8368 H         1 UNK         0.0784 
     96 H96        21.4360    1.3092   -4.7608 H         1 UNK         0.0793 
     97 H97        21.1117   -0.3970   -4.4871 H         1 UNK         0.0793 
     98 H98        21.4029    0.6820   -3.1222 H         1 UNK         0.0793 
     99 H99        22.7851   -1.4274   -2.8948 H         1 UNK         0.3024 
    100 H100       24.3248   -2.5822   -1.4341 H         1 UNK         0.1171 
    101 H101       23.3758   -3.8528   -3.3637 H         1 UNK         0.0786 
    102 H102       24.5268   -4.8558   -2.5039 H         1 UNK         0.0786 
    103 H103       24.9823   -4.1022   -4.0301 H         1 UNK         0.0786 
    104 H104       26.8093   -3.6863   -2.4151 H         1 UNK         0.2977 
    105 H105       26.7092    0.0656   -4.9950 H         1 UNK         0.3127 
    106 H106       28.7288    2.0498   -5.1388 H         1 UNK         0.0770 
    107 H107       25.7366    2.3762   -4.5538 H         1 UNK         0.0814 
    108 H108       26.9941    3.5415   -4.1672 H         1 UNK         0.0814 
    109 H109       26.9772    1.9764   -3.3676 H         1 UNK         0.0814 
    110 H110       25.7406    1.6364   -7.0698 H         1 UNK         0.2983 
    111 H111       26.2455    3.9151   -8.7870 H         1 UNK         0.0947 
    112 H112       24.1509    3.1687   -9.8798 H         1 UNK         0.0806 
    113 H113       23.9508    3.1504   -8.1369 H         1 UNK         0.0806 
    114 H114       24.2053    1.6407   -9.0103 H         1 UNK         0.0806 
    115 H115       28.0207    1.1900   -8.7686 H         1 UNK         0.3000 
    116 H116       27.9572    0.1982  -11.3678 H         1 UNK         0.0850 
    117 H117       30.2171   -0.7247  -10.8622 H         1 UNK         0.0810 
    118 H118       29.0659   -0.9989   -9.5666 H         1 UNK         0.0810 
    119 H119       30.2918    0.2591   -9.4131 H         1 UNK         0.0810 
    120 H120       30.3596    3.4104  -12.1513 H         1 UNK         0.3040 
    121 H121       29.1063    3.5201   -9.5433 H         1 UNK         0.0766 
    122 H122       30.3668    5.6145   -9.4029 H         1 UNK         0.0812 
    123 H123       29.4610    5.5323  -10.9037 H         1 UNK         0.0812 
    124 H124       31.2027    5.2489  -10.9052 H         1 UNK         0.0812 
    125 H125       30.0296    3.1739   -7.6225 H         1 UNK         0.3205 
    126 H126       31.3523    2.5031   -5.9782 H         1 UNK         0.0754 
    127 H127       33.5755    3.6161   -5.8749 H         1 UNK         0.0769 
    128 H128       32.3479    4.7142   -6.4834 H         1 UNK         0.0769 
    129 H129       33.4989    3.9741   -7.5946 H         1 UNK         0.0769 
    130 H130       30.8968    0.2779   -6.9801 H         1 UNK         0.2981 
    131 H131       31.4574   -1.8104   -6.9317 H         1 UNK         0.0541 
    132 H132       33.4083   -3.2305   -9.6664 H         1 UNK         0.3459 
    133 H133       33.0732   -3.6122   -8.0000 H         1 UNK         0.3459 
    134 H134       34.3578   -1.1100   -6.2181 H         1 UNK         0.0612 
    135 H135       33.6281   -2.6785   -6.0877 H         1 UNK         0.0612 
    136 H136       34.1477   -3.2559   -3.9291 H         1 UNK         0.0624 
    137 H137       33.7199   -2.4353   -2.4541 H         1 UNK         0.0624 
@<TRIPOS>BOND
     1    1    2 1    
     2    1   72 1    
     3    1   73 1    
     4    1   74 1    
     5    2    3 2    
     6    2    4 am   BACKBONE|DICT|INTERRES
     7    4    5 1    
     8    4   75 1    
     9    5    6 1    
    10    5   35 1    
    11    5   76 1    
    12    6    7 1    
    13    6   77 1    
    14    6   78 1    
    15    7    8 1    
    16    8    9 1    
    17    8   79 1    
    18    8   80 1    
    19    9   10 ar   
    20    9   14 ar   
    21   10   11 ar   
    22   10   81 1    
    23   11   12 ar   
    24   11   71 1    
    25   12   13 ar   
    26   12   82 1    
    27   13   14 ar   
    28   13   15 1    
    29   14   83 1    
    30   15   16 1    
    31   15   84 1    
    32   15   85 1    
    33   16   17 1    
    34   17   18 1    
    35   17   86 1    
    36   17   87 1    
    37   18   19 1    
    38   18   37 1    
    39   18   88 1    
    40   19   20 am   BACKBONE|DICT|INTERRES
    41   19   89 1    
    42   20   21 2    
    43   20   22 1    
    44   22   23 1    
    45   22   24 1    
    46   22   90 1    
    47   23   91 1    
    48   23   92 1    
    49   23   93 1    
    50   24   25 am   BACKBONE|DICT|INTERRES
    51   24   94 1    
    52   25   26 2    
    53   25   27 1    
    54   27   28 1    
    55   27   29 1    
    56   27   95 1    
    57   28   96 1    
    58   28   97 1    
    59   28   98 1    
    60   29   30 am   BACKBONE|DICT|INTERRES
    61   29   99 1    
    62   30   31 2    
    63   30   32 1    
    64   32   33 1    
    65   32   34 1    
    66   32  100 1    
    67   33  101 1    
    68   33  102 1    
    69   33  103 1    
    70   34   35 am   BACKBONE|DICT|INTERRES
    71   34  104 1    
    72   35   36 2    
    73   37   38 2    
    74   37   39 am   BACKBONE|DICT|INTERRES
    75   39   40 1    
    76   39  105 1    
    77   40   41 1    
    78   40   42 1    
    79   40  106 1    
    80   41  107 1    
    81   41  108 1    
    82   41  109 1    
    83   42   43 2    
    84   42   44 am   BACKBONE|DICT|INTERRES
    85   44   45 1    
    86   44  110 1    
    87   45   46 1    
    88   45   47 1    
    89   45  111 1    
    90   46  112 1    
    91   46  113 1    
    92   46  114 1    
    93   47   48 2    
    94   47   49 am   BACKBONE|DICT|INTERRES
    95   49   50 1    
    96   49  115 1    
    97   50   51 1    
    98   50   52 1    
    99   50  116 1    
   100   51  117 1    
   101   51  118 1    
   102   51  119 1    
   103   52   53 2    
   104   52   54 am   BACKBONE|DICT|INTERRES
   105   54   55 1    
   106   54  120 1    
   107   55   56 1    
   108   55   57 1    
   109   55  121 1    
   110   56  122 1    
   111   56  123 1    
   112   56  124 1    
   113   57   58 2    
   114   57   59 am   BACKBONE|DICT|INTERRES
   115   59   60 1    
   116   59  125 1    
   117   60   61 1    
   118   60   62 1    
   119   60  126 1    
   120   61  127 1    
   121   61  128 1    
   122   61  129 1    
   123   62   63 2    
   124   62   64 am   BACKBONE|DICT|INTERRES
   125   64   65 1    
   126   64  130 1    
   127   65   66 1    
   128   65   69 1    
   129   65  131 1    
   130   66   67 am   BACKBONE|DICT|INTERRES
   131   66   68 2    
   132   67  132 1    
   133   67  133 1    
   134   69   70 1    
   135   69  134 1    
   136   69  135 1    
   137   70   71 1    
   138   71  136 1    
   139   71  137 1    
@<TRIPOS>SUBSTRUCTURE
     1 UNK         1 GROUP             0       ****    0 ROOT    
