@<TRIPOS>MOLECULE
3R137
137   139    1
SMALL
USER_CHARGES


@<TRIPOS>ATOM
      1 CA         29.5770   -0.3060   -2.9475 C.3       0 UNK        -0.2020 
      2 C          29.7110   -0.3866   -1.4315 C.2       0 UNK         0.4855 
      3 O          30.1251    0.5903   -0.8121 O.2       0 UNK        -0.5197 
      4 N          29.3937   -1.5159   -0.7813 N.am      1 UNK        -0.4892 
      5 CA         28.8241   -2.7520   -1.3387 C.3       1 UNK         0.0835 
      6 C6         28.9635   -3.9034   -0.3072 C.3       12 UNK        -0.0855 
      7 S7         28.5784   -5.5643   -0.9603 S.3       12 UNK        -0.2931 
      8 C8         30.2307   -6.1854   -1.4114 C.3       12 UNK         0.0378 
      9 C9         30.8184   -5.4234   -2.5902 C.ar      12 UNK        -0.0802 
     10 C10        31.9647   -4.6395   -2.4314 C.ar      12 UNK        -0.0944 
     11 C11        32.5103   -3.9377   -3.5119 C.ar      12 UNK        -0.0787 
     12 C12        31.8813   -4.0222   -4.7629 C.ar      12 UNK        -0.0862 
     13 C13        30.7299   -4.7968   -4.9318 C.ar      12 UNK        -0.0733 
     14 C14        30.2121   -5.5053   -3.8455 C.ar      12 UNK        -0.0832 
     15 C15        30.0446   -4.8772   -6.2883 C.3       12 UNK         0.0240 
     16 S16        28.3681   -4.1678   -6.2444 S.3       12 UNK        -0.2522 
     17 C17        28.7012   -2.4225   -5.8293 C.3       12 UNK        -0.0967 
     18 CA         27.8542   -1.4687   -6.6988 C.3       5 UNK         0.0660 
     19 N          26.4181   -1.6368   -6.4446 N.am      5 UNK        -0.4015 
     20 C          25.4525   -1.2565   -7.2907 C.2       4 UNK         0.4946 
     21 O          25.6651   -0.6801   -8.3569 O.2       4 UNK        -0.5353 
     22 CA         24.0052   -1.5324   -6.8541 C.3       4 UNK         0.0277 
     23 CB         23.7089   -3.0415   -6.8375 C.3       4 UNK        -0.1981 
     24 N          23.6806   -0.9466   -5.5508 N.am      4 UNK        -0.4209 
     25 C          23.6969    0.3670   -5.2824 C.2       3 UNK         0.4942 
     26 O          24.0106    1.2292   -6.1000 O.2       3 UNK        -0.5208 
     27 CA         23.3187    0.8054   -3.8588 C.3       3 UNK         0.0250 
     28 CB         21.8038    1.0454   -3.7585 C.3       3 UNK        -0.1990 
     29 N          23.7382   -0.1185   -2.8013 N.am      3 UNK        -0.4232 
     30 C          25.0019   -0.4901   -2.5533 C.2       2 UNK         0.4993 
     31 O          25.9600   -0.1495   -3.2522 O.2       2 UNK        -0.5286 
     32 CA         25.2075   -1.3507   -1.2902 C.3       2 UNK         0.0209 
     33 CB         24.2869   -2.5929   -1.2692 C.3       2 UNK        -0.1931 
     34 N          26.6080   -1.7330   -1.0630 N.am      2 UNK        -0.4546 
     35 C          27.3617   -2.5613   -1.8028 C.2       1 UNK         0.5154 
     36 O          26.9631   -3.1407   -2.8135 O.2       1 UNK        -0.5181 
     37 C          28.3152   -0.0037   -6.5528 C.2       5 UNK         0.5014 
     38 O          29.3743    0.3463   -7.0864 O.2       5 UNK        -0.5248 
     39 N          27.5207    0.8261   -5.8599 N.am      6 UNK        -0.4434 
     40 CA         27.6624    2.2793   -5.8363 C.3       6 UNK         0.0363 
     41 CB         26.8845    2.8691   -4.6497 C.3       6 UNK        -0.1936 
     42 C          27.2208    2.9018   -7.1707 C.2       6 UNK         0.5081 
     43 O          28.0106    3.6131   -7.7900 O.2       6 UNK        -0.5248 
     44 N          25.9900    2.5993   -7.6118 N.am      7 UNK        -0.4718 
     45 CA         25.3960    3.1050   -8.8558 C.3       7 UNK         0.0273 
     46 CB         23.9113    2.7139   -8.9202 C.3       7 UNK        -0.1935 
     47 C          26.1279    2.6352  -10.1223 C.2       7 UNK         0.5018 
     48 O          26.2849    3.4236  -11.0552 O.2       7 UNK        -0.5186 
     49 N          26.5909    1.3773  -10.1230 N.am      8 UNK        -0.4240 
     50 CA         27.4221    0.8008  -11.1839 C.3       8 UNK         0.0235 
     51 CB         27.4190   -0.7314  -11.0495 C.3       8 UNK        -0.2000 
     52 C          28.8695    1.3285  -11.1903 C.2       8 UNK         0.4941 
     53 O          29.5837    1.0751  -12.1611 O.2       8 UNK        -0.5273 
     54 N          29.2842    2.0178  -10.1138 N.am      9 UNK        -0.4262 
     55 CA         30.6306    2.5406   -9.8538 C.3       9 UNK         0.0264 
     56 CB         30.9834    3.6727  -10.8419 C.3       9 UNK        -0.1955 
     57 C          31.7040    1.4359   -9.7908 C.2       9 UNK         0.5031 
     58 O          32.8494    1.6665  -10.1839 O.2       9 UNK        -0.5390 
     59 N          31.3144    0.2560   -9.2874 N.am      10 UNK        -0.4204 
     60 CA         32.2041   -0.8810   -9.0509 C.3       10 UNK         0.0237 
     61 CB         31.3786   -2.1714   -8.9270 C.3       10 UNK        -0.1985 
     62 C          33.0689   -0.6407   -7.8055 C.2       10 UNK         0.4970 
     63 O          34.2837   -0.8305   -7.8682 O.2       10 UNK        -0.4914 
     64 N          32.4239   -0.1732   -6.7299 N.am      11 UNK        -0.4285 
     65 CA         33.0656    0.3720   -5.5238 C.3       11 UNK         0.1007 
     66 C          32.4518    1.7327   -5.0899 C.2       11 UNK         0.5703 
     67 N          31.3455    2.1933   -5.6645 N.am      11 UNK        -0.7361 
     68 O          33.0102    2.4051   -4.2269 O.2       11 UNK        -0.4986 
     69 C69        33.0906   -0.6430   -4.3493 C.3       12 UNK        -0.0947 
     70 S70        34.2848   -1.9916   -4.6072 S.3       12 UNK        -0.2240 
     71 C71        33.7961   -3.1408   -3.2764 C.3       12 UNK         0.0194 
     72 H72        29.9920   -1.1891   -3.4262 H         1 UNK         0.0906 
     73 H73        28.5329   -0.2023   -3.2352 H         1 UNK         0.0906 
     74 H74        30.1123    0.5617   -3.3322 H         1 UNK         0.0906 
     75 H75        29.5267   -1.5250    0.2204 H         1 UNK         0.3140 
     76 H76        29.4063   -3.0249   -2.2200 H         1 UNK         0.1085 
     77 H77        29.9806   -3.9240    0.0880 H         1 UNK         0.0836 
     78 H78        28.3194   -3.7224    0.5557 H         1 UNK         0.0836 
     79 H79        30.1501   -7.2407   -1.6759 H         1 UNK         0.0731 
     80 H80        30.8883   -6.1381   -0.5419 H         1 UNK         0.0731 
     81 H81        32.4423   -4.5817   -1.4625 H         1 UNK         0.1312 
     82 H82        32.2838   -3.4949   -5.6156 H         1 UNK         0.1406 
     83 H83        29.3198   -6.1040   -3.9722 H         1 UNK         0.1631 
     84 H84        29.9763   -5.9228   -6.5914 H         1 UNK         0.0717 
     85 H85        30.6306   -4.3741   -7.0576 H         1 UNK         0.0717 
     86 H86        28.4766   -2.2797   -4.7735 H         1 UNK         0.0934 
     87 H87        29.7667   -2.2191   -5.9465 H         1 UNK         0.0934 
     88 H88        28.0356   -1.7314   -7.7431 H         1 UNK         0.0739 
     89 H89        26.1658   -2.0902   -5.5774 H         1 UNK         0.3093 
     90 H90        23.3497   -1.0688   -7.5948 H         1 UNK         0.0818 
     91 H91        23.9497   -3.4962   -7.7996 H         1 UNK         0.0819 
     92 H92        24.2881   -3.5653   -6.0759 H         1 UNK         0.0819 
     93 H93        22.6531   -3.2351   -6.6466 H         1 UNK         0.0819 
     94 H94        23.4184   -1.5818   -4.8115 H         1 UNK         0.3041 
     95 H95        23.8222    1.7557   -3.6711 H         1 UNK         0.0784 
     96 H96        21.4689    1.7481   -4.5232 H         1 UNK         0.0793 
     97 H97        21.2375    0.1230   -3.8937 H         1 UNK         0.0793 
     98 H98        21.5310    1.4698   -2.7920 H         1 UNK         0.0793 
     99 H99        23.0121   -0.4385   -2.1767 H         1 UNK         0.3024 
    100 H100       24.9341   -0.7175   -0.4443 H         1 UNK         0.1171 
    101 H101       24.4988   -3.2269   -0.4081 H         1 UNK         0.0786 
    102 H102       23.2355   -2.3125   -1.2024 H         1 UNK         0.0786 
    103 H103       24.4030   -3.2024   -2.1661 H         1 UNK         0.0786 
    104 H104       27.0621   -1.2691   -0.2887 H         1 UNK         0.2977 
    105 H105       26.7060    0.4438   -5.3960 H         1 UNK         0.3127 
    106 H106       28.7139    2.5213   -5.6875 H         1 UNK         0.0770 
    107 H107       25.8143    2.6836   -4.7285 H         1 UNK         0.0814 
    108 H108       27.0237    3.9493   -4.5928 H         1 UNK         0.0814 
    109 H109       27.2267    2.4468   -3.7045 H         1 UNK         0.0814 
    110 H110       25.3874    2.0088   -7.0404 H         1 UNK         0.2983 
    111 H111       25.4595    4.1950   -8.8296 H         1 UNK         0.0947 
    112 H112       23.4451    3.0889   -9.8323 H         1 UNK         0.0806 
    113 H113       23.3560    3.1282   -8.0785 H         1 UNK         0.0806 
    114 H114       23.7805    1.6308   -8.9055 H         1 UNK         0.0806 
    115 H115       26.3442    0.7627   -9.3485 H         1 UNK         0.3000 
    116 H116       26.9770    1.0607  -12.1466 H         1 UNK         0.0850 
    117 H117       27.9819   -1.1980  -11.8591 H         1 UNK         0.0810 
    118 H118       26.4055   -1.1313  -11.0881 H         1 UNK         0.0810 
    119 H119       27.8703   -1.0538  -10.1109 H         1 UNK         0.0810 
    120 H120       28.6090    2.2054   -9.3820 H         1 UNK         0.3040 
    121 H121       30.5940    2.9779   -8.8548 H         1 UNK         0.0766 
    122 H122       31.1017    3.3003  -11.8598 H         1 UNK         0.0812 
    123 H123       31.9194    4.1579  -10.5628 H         1 UNK         0.0812 
    124 H124       30.2116    4.4423  -10.8529 H         1 UNK         0.0812 
    125 H125       30.3724    0.1876   -8.9205 H         1 UNK         0.3205 
    126 H126       32.8711   -0.9871   -9.9094 H         1 UNK         0.0754 
    127 H127       32.0230   -3.0283   -8.7261 H         1 UNK         0.0769 
    128 H128       30.8374   -2.3822   -9.8496 H         1 UNK         0.0769 
    129 H129       30.6486   -2.1111   -8.1215 H         1 UNK         0.0769 
    130 H130       31.4212   -0.0511   -6.7872 H         1 UNK         0.2981 
    131 H131       34.0999    0.6223   -5.7676 H         1 UNK         0.0541 
    132 H132       30.8225    1.6572   -6.3413 H         1 UNK         0.3459 
    133 H133       31.0034    3.0938   -5.3709 H         1 UNK         0.3459 
    134 H134       32.1012   -1.0720   -4.2023 H         1 UNK         0.0612 
    135 H135       33.3600   -0.1564   -3.4098 H         1 UNK         0.0612 
    136 H136       33.7116   -2.5763   -2.3464 H         1 UNK         0.0624 
    137 H137       34.6115   -3.8507   -3.1326 H         1 UNK         0.0624 
@<TRIPOS>BOND
     1    1    2 1    
     2    1   72 1    
     3    1   73 1    
     4    1   74 1    
     5    2    3 2    
     6    2    4 am   BACKBONE|DICT|INTERRES
     7    4    5 1    
     8    4   75 1    
     9    5    6 1    
    10    5   35 1    
    11    5   76 1    
    12    6    7 1    
    13    6   77 1    
    14    6   78 1    
    15    7    8 1    
    16    8    9 1    
    17    8   79 1    
    18    8   80 1    
    19    9   10 ar   
    20    9   14 ar   
    21   10   11 ar   
    22   10   81 1    
    23   11   12 ar   
    24   11   71 1    
    25   12   13 ar   
    26   12   82 1    
    27   13   14 ar   
    28   13   15 1    
    29   14   83 1    
    30   15   16 1    
    31   15   84 1    
    32   15   85 1    
    33   16   17 1    
    34   17   18 1    
    35   17   86 1    
    36   17   87 1    
    37   18   19 1    
    38   18   37 1    
    39   18   88 1    
    40   19   20 am   BACKBONE|DICT|INTERRES
    41   19   89 1    
    42   20   21 2    
    43   20   22 1    
    44   22   23 1    
    45   22   24 1    
    46   22   90 1    
    47   23   91 1    
    48   23   92 1    
    49   23   93 1    
    50   24   25 am   BACKBONE|DICT|INTERRES
    51   24   94 1    
    52   25   26 2    
    53   25   27 1    
    54   27   28 1    
    55   27   29 1    
    56   27   95 1    
    57   28   96 1    
    58   28   97 1    
    59   28   98 1    
    60   29   30 am   BACKBONE|DICT|INTERRES
    61   29   99 1    
    62   30   31 2    
    63   30   32 1    
    64   32   33 1    
    65   32   34 1    
    66   32  100 1    
    67   33  101 1    
    68   33  102 1    
    69   33  103 1    
    70   34   35 am   BACKBONE|DICT|INTERRES
    71   34  104 1    
    72   35   36 2    
    73   37   38 2    
    74   37   39 am   BACKBONE|DICT|INTERRES
    75   39   40 1    
    76   39  105 1    
    77   40   41 1    
    78   40   42 1    
    79   40  106 1    
    80   41  107 1    
    81   41  108 1    
    82   41  109 1    
    83   42   43 2    
    84   42   44 am   BACKBONE|DICT|INTERRES
    85   44   45 1    
    86   44  110 1    
    87   45   46 1    
    88   45   47 1    
    89   45  111 1    
    90   46  112 1    
    91   46  113 1    
    92   46  114 1    
    93   47   48 2    
    94   47   49 am   BACKBONE|DICT|INTERRES
    95   49   50 1    
    96   49  115 1    
    97   50   51 1    
    98   50   52 1    
    99   50  116 1    
   100   51  117 1    
   101   51  118 1    
   102   51  119 1    
   103   52   53 2    
   104   52   54 am   BACKBONE|DICT|INTERRES
   105   54   55 1    
   106   54  120 1    
   107   55   56 1    
   108   55   57 1    
   109   55  121 1    
   110   56  122 1    
   111   56  123 1    
   112   56  124 1    
   113   57   58 2    
   114   57   59 am   BACKBONE|DICT|INTERRES
   115   59   60 1    
   116   59  125 1    
   117   60   61 1    
   118   60   62 1    
   119   60  126 1    
   120   61  127 1    
   121   61  128 1    
   122   61  129 1    
   123   62   63 2    
   124   62   64 am   BACKBONE|DICT|INTERRES
   125   64   65 1    
   126   64  130 1    
   127   65   66 1    
   128   65   69 1    
   129   65  131 1    
   130   66   67 am   BACKBONE|DICT|INTERRES
   131   66   68 2    
   132   67  132 1    
   133   67  133 1    
   134   69   70 1    
   135   69  134 1    
   136   69  135 1    
   137   70   71 1    
   138   71  136 1    
   139   71  137 1    
@<TRIPOS>SUBSTRUCTURE
     1 UNK         1 GROUP             0       ****    0 ROOT    
