@<TRIPOS>MOLECULE
3R137
137   139    1
SMALL
USER_CHARGES


@<TRIPOS>ATOM
      1 CA         30.1209    0.2184   -0.5251 C.3       0 UNK        -0.2020 
      2 C          29.1785   -0.9734   -0.4500 C.2       0 UNK         0.4855 
      3 O          28.5054   -1.1581    0.5634 O.2       0 UNK        -0.5197 
      4 N          29.1045   -1.7713   -1.5241 N.am      1 UNK        -0.4892 
      5 CA         28.3046   -2.9969   -1.6941 C.3       1 UNK         0.0835 
      6 C6         28.6521   -4.0946   -0.6472 C.3       12 UNK        -0.0855 
      7 S7         28.7382   -5.7741   -1.3591 S.3       12 UNK        -0.2931 
      8 C8         30.4644   -5.8499   -1.9584 C.3       12 UNK         0.0378 
      9 C9         30.6554   -4.9638   -3.1807 C.ar      12 UNK        -0.0802 
     10 C10        31.3022   -3.7275   -3.0723 C.ar      12 UNK        -0.0944 
     11 C11        31.3459   -2.8462   -4.1586 C.ar      12 UNK        -0.0787 
     12 C12        30.7533   -3.2338   -5.3666 C.ar      12 UNK        -0.0862 
     13 C13        30.1419   -4.4835   -5.5016 C.ar      12 UNK        -0.0733 
     14 C14        30.1081   -5.3500   -4.4069 C.ar      12 UNK        -0.0832 
     15 C15        29.5040   -4.8819   -6.8276 C.3       12 UNK         0.0240 
     16 S16        27.7423   -5.3457   -6.6925 S.3       12 UNK        -0.2522 
     17 C17        26.9881   -3.9428   -5.8006 C.3       12 UNK        -0.0967 
     18 CA         26.6451   -2.7381   -6.7166 C.3       5 UNK         0.0660 
     19 N          25.3451   -2.1390   -6.3947 N.am      5 UNK        -0.4015 
     20 C          24.7345   -1.2074   -7.1442 C.2       4 UNK         0.4946 
     21 O          25.2053   -0.7432   -8.1816 O.2       4 UNK        -0.5353 
     22 CA         23.4227   -0.6383   -6.6042 C.3       4 UNK         0.0277 
     23 CB         22.3547   -1.7212   -6.3634 C.3       4 UNK        -0.1981 
     24 N          23.7310    0.0701   -5.3716 N.am      4 UNK        -0.4209 
     25 C          23.1283    1.1588   -4.8950 C.2       3 UNK         0.4942 
     26 O          22.1439    1.6826   -5.4195 O.2       3 UNK        -0.5208 
     27 CA         23.7489    1.7564   -3.6128 C.3       3 UNK         0.0250 
     28 CB         22.9135    2.9153   -3.0369 C.3       3 UNK        -0.1990 
     29 N          23.9810    0.7653   -2.5521 N.am      3 UNK        -0.4232 
     30 C          24.9231   -0.1886   -2.5441 C.2       2 UNK         0.4993 
     31 O          25.7003   -0.3824   -3.4874 O.2       2 UNK        -0.5286 
     32 CA         24.9728   -1.0682   -1.2804 C.3       2 UNK         0.0209 
     33 CB         23.7906   -2.0589   -1.2348 C.3       2 UNK        -0.1931 
     34 N          26.2653   -1.7474   -1.1261 N.am      2 UNK        -0.4546 
     35 C          26.7897   -2.7411   -1.8564 C.2       1 UNK         0.5154 
     36 O          26.1558   -3.3991   -2.6821 O.2       1 UNK        -0.5181 
     37 C          27.7717   -1.6878   -6.7036 C.2       5 UNK         0.5014 
     38 O          28.5746   -1.6526   -7.6373 O.2       5 UNK        -0.5248 
     39 N          27.7856   -0.8228   -5.6744 N.am      6 UNK        -0.4434 
     40 CA         28.7607    0.2626   -5.5359 C.3       6 UNK         0.0363 
     41 CB         28.5802    0.9594   -4.1787 C.3       6 UNK        -0.1936 
     42 C          28.6801    1.2898   -6.6743 C.2       6 UNK         0.5081 
     43 O          29.7181    1.7750   -7.1224 O.2       6 UNK        -0.5248 
     44 N          27.4540    1.5756   -7.1328 N.am      7 UNK        -0.4718 
     45 CA         27.1759    2.4576   -8.2645 C.3       7 UNK         0.0273 
     46 CB         25.6899    2.8532   -8.2571 C.3       7 UNK        -0.1935 
     47 C          27.5729    1.8187   -9.6042 C.2       7 UNK         0.5018 
     48 O          28.2039    2.4877  -10.4221 O.2       7 UNK        -0.5186 
     49 N          27.2192    0.5385   -9.7947 N.am      8 UNK        -0.4240 
     50 CA         27.5257   -0.2457  -10.9940 C.3       8 UNK         0.0235 
     51 CB         26.7858   -1.5921  -10.9369 C.3       8 UNK        -0.2000 
     52 C          29.0319   -0.4650  -11.2060 C.2       8 UNK         0.4941 
     53 O          29.5133   -0.2968  -12.3271 O.2       8 UNK        -0.5273 
     54 N          29.7488   -0.8219  -10.1316 N.am      9 UNK        -0.4262 
     55 CA         31.2013   -1.0163  -10.1459 C.3       9 UNK         0.0264 
     56 CB         31.5964   -1.9063   -8.9606 C.3       9 UNK        -0.1955 
     57 C          31.9965    0.3004  -10.0991 C.2       9 UNK         0.5031 
     58 O          33.1824    0.2844  -10.4325 O.2       9 UNK        -0.5390 
     59 N          31.3474    1.3946   -9.6714 N.am      10 UNK        -0.4204 
     60 CA         31.9106    2.7234   -9.4085 C.3       10 UNK         0.0237 
     61 CB         32.4051    3.3890  -10.7109 C.3       10 UNK        -0.1985 
     62 C          32.9763    2.6777   -8.2962 C.2       10 UNK         0.4970 
     63 O          34.0997    3.1468   -8.4919 O.2       10 UNK        -0.4914 
     64 N          32.6007    2.0867   -7.1544 N.am      11 UNK        -0.4285 
     65 CA         33.4370    1.9739   -5.9500 C.3       11 UNK         0.1007 
     66 C          33.7522    3.3573   -5.3162 C.2       11 UNK         0.5703 
     67 N          34.9368    3.5210   -4.7427 N.am      11 UNK        -0.7361 
     68 O          32.9213    4.2642   -5.3013 O.2       11 UNK        -0.4986 
     69 C69        32.8032    1.0303   -4.8952 C.3       12 UNK        -0.0947 
     70 S70        32.6540   -0.6932   -5.4683 S.3       12 UNK        -0.2240 
     71 C71        31.9543   -1.4559   -3.9649 C.3       12 UNK         0.0194 
     72 H72        30.6561    0.2643   -1.4724 H         1 UNK         0.0906 
     73 H73        29.5608    1.1459   -0.4083 H         1 UNK         0.0906 
     74 H74        30.8572    0.1631    0.2763 H         1 UNK         0.0906 
     75 H75        29.6636   -1.5400   -2.3313 H         1 UNK         0.3140 
     76 H76        28.6030   -3.3590   -2.6764 H         1 UNK         0.1085 
     77 H77        29.6190   -3.8909   -0.1844 H         1 UNK         0.0836 
     78 H78        27.9372   -4.0926    0.1778 H         1 UNK         0.0836 
     79 H79        31.1487   -5.5681   -1.1566 H         1 UNK         0.0731 
     80 H80        30.7052   -6.8816   -2.2187 H         1 UNK         0.0731 
     81 H81        31.7185   -3.4261   -2.1205 H         1 UNK         0.1312 
     82 H82        30.7467   -2.5549   -6.2046 H         1 UNK         0.1406 
     83 H83        29.6058   -6.3042   -4.4942 H         1 UNK         0.1631 
     84 H84        29.5945   -4.0803   -7.5601 H         1 UNK         0.0717 
     85 H85        30.0552   -5.7280   -7.2396 H         1 UNK         0.0717 
     86 H86        26.0769   -4.3418   -5.3521 H         1 UNK         0.0934 
     87 H87        27.6094   -3.6586   -4.9500 H         1 UNK         0.0934 
     88 H88        26.5586   -3.0980   -7.7443 H         1 UNK         0.0739 
     89 H89        24.9046   -2.4529   -5.5420 H         1 UNK         0.3093 
     90 H90        23.0423    0.0706   -7.3433 H         1 UNK         0.0818 
     91 H91        21.4033   -1.2729   -6.0764 H         1 UNK         0.0819 
     92 H92        22.1771   -2.3027   -7.2691 H         1 UNK         0.0819 
     93 H93        22.6412   -2.4172   -5.5746 H         1 UNK         0.0819 
     94 H94        24.5425   -0.2534   -4.8468 H         1 UNK         0.3041 
     95 H95        24.7192    2.1656   -3.9029 H         1 UNK         0.0784 
     96 H96        22.7784    3.7069   -3.7754 H         1 UNK         0.0793 
     97 H97        21.9212    2.5830   -2.7294 H         1 UNK         0.0793 
     98 H98        23.4010    3.3658   -2.1721 H         1 UNK         0.0793 
     99 H99        23.3593    0.8259   -1.7583 H         1 UNK         0.3024 
    100 H100       24.8901   -0.4016   -0.4202 H         1 UNK         0.1171 
    101 H101       22.8400   -1.5313   -1.1508 H         1 UNK         0.0786 
    102 H102       23.7346   -2.6738   -2.1335 H         1 UNK         0.0786 
    103 H103       23.8649   -2.7263   -0.3762 H         1 UNK         0.0786 
    104 H104       26.9089   -1.3137   -0.4690 H         1 UNK         0.2977 
    105 H105       27.0773   -0.8907   -4.9498 H         1 UNK         0.3127 
    106 H106       29.7540   -0.1851   -5.5684 H         1 UNK         0.0770 
    107 H107       27.6211    1.4748   -4.1142 H         1 UNK         0.0814 
    108 H108       29.3601    1.7040   -4.0150 H         1 UNK         0.0814 
    109 H109       28.6269    0.2501   -3.3555 H         1 UNK         0.0814 
    110 H110       26.6669    1.0964   -6.7225 H         1 UNK         0.2983 
    111 H111       27.7701    3.3663   -8.1417 H         1 UNK         0.0947 
    112 H112       25.4644    3.5305   -9.0819 H         1 UNK         0.0806 
    113 H113       25.4209    3.3675   -7.3344 H         1 UNK         0.0806 
    114 H114       25.0355    1.9869   -8.3602 H         1 UNK         0.0806 
    115 H115       26.6547    0.0759   -9.0854 H         1 UNK         0.3000 
    116 H116       27.1500    0.3113  -11.8550 H         1 UNK         0.0850 
    117 H117       25.7066   -1.4485  -10.8820 H         1 UNK         0.0810 
    118 H118       27.0878   -2.1819  -10.0706 H         1 UNK         0.0810 
    119 H119       26.9889   -2.1891  -11.8270 H         1 UNK         0.0810 
    120 H120       29.2697   -0.9944   -9.2483 H         1 UNK         0.3040 
    121 H121       31.4769   -1.5353  -11.0665 H         1 UNK         0.0766 
    122 H122       31.0890   -2.8695   -8.9983 H         1 UNK         0.0812 
    123 H123       31.3449   -1.4236   -8.0177 H         1 UNK         0.0812 
    124 H124       32.6695   -2.1019   -8.9520 H         1 UNK         0.0812 
    125 H125       30.3814    1.2807   -9.3941 H         1 UNK         0.3205 
    126 H126       31.0903    3.3312   -9.0232 H         1 UNK         0.0754 
    127 H127       32.7208    4.4165  -10.5263 H         1 UNK         0.0769 
    128 H128       31.6149    3.4222  -11.4611 H         1 UNK         0.0769 
    129 H129       33.2560    2.8614  -11.1429 H         1 UNK         0.0769 
    130 H130       31.6331    1.7901   -7.0648 H         1 UNK         0.2981 
    131 H131       34.3856    1.5344   -6.2653 H         1 UNK         0.0541 
    132 H132       35.6213    2.7808   -4.7379 H         1 UNK         0.3459 
    133 H133       35.1542    4.4064   -4.3126 H         1 UNK         0.3459 
    134 H134       31.8141    1.3924   -4.6091 H         1 UNK         0.0612 
    135 H135       33.4039    1.0190   -3.9835 H         1 UNK         0.0612 
    136 H136       32.7382   -1.4920   -3.2067 H         1 UNK         0.0624 
    137 H137       31.1745   -0.8013   -3.5779 H         1 UNK         0.0624 
@<TRIPOS>BOND
     1    1    2 1    
     2    1   72 1    
     3    1   73 1    
     4    1   74 1    
     5    2    3 2    
     6    2    4 am   BACKBONE|DICT|INTERRES
     7    4    5 1    
     8    4   75 1    
     9    5    6 1    
    10    5   35 1    
    11    5   76 1    
    12    6    7 1    
    13    6   77 1    
    14    6   78 1    
    15    7    8 1    
    16    8    9 1    
    17    8   79 1    
    18    8   80 1    
    19    9   10 ar   
    20    9   14 ar   
    21   10   11 ar   
    22   10   81 1    
    23   11   12 ar   
    24   11   71 1    
    25   12   13 ar   
    26   12   82 1    
    27   13   14 ar   
    28   13   15 1    
    29   14   83 1    
    30   15   16 1    
    31   15   84 1    
    32   15   85 1    
    33   16   17 1    
    34   17   18 1    
    35   17   86 1    
    36   17   87 1    
    37   18   19 1    
    38   18   37 1    
    39   18   88 1    
    40   19   20 am   BACKBONE|DICT|INTERRES
    41   19   89 1    
    42   20   21 2    
    43   20   22 1    
    44   22   23 1    
    45   22   24 1    
    46   22   90 1    
    47   23   91 1    
    48   23   92 1    
    49   23   93 1    
    50   24   25 am   BACKBONE|DICT|INTERRES
    51   24   94 1    
    52   25   26 2    
    53   25   27 1    
    54   27   28 1    
    55   27   29 1    
    56   27   95 1    
    57   28   96 1    
    58   28   97 1    
    59   28   98 1    
    60   29   30 am   BACKBONE|DICT|INTERRES
    61   29   99 1    
    62   30   31 2    
    63   30   32 1    
    64   32   33 1    
    65   32   34 1    
    66   32  100 1    
    67   33  101 1    
    68   33  102 1    
    69   33  103 1    
    70   34   35 am   BACKBONE|DICT|INTERRES
    71   34  104 1    
    72   35   36 2    
    73   37   38 2    
    74   37   39 am   BACKBONE|DICT|INTERRES
    75   39   40 1    
    76   39  105 1    
    77   40   41 1    
    78   40   42 1    
    79   40  106 1    
    80   41  107 1    
    81   41  108 1    
    82   41  109 1    
    83   42   43 2    
    84   42   44 am   BACKBONE|DICT|INTERRES
    85   44   45 1    
    86   44  110 1    
    87   45   46 1    
    88   45   47 1    
    89   45  111 1    
    90   46  112 1    
    91   46  113 1    
    92   46  114 1    
    93   47   48 2    
    94   47   49 am   BACKBONE|DICT|INTERRES
    95   49   50 1    
    96   49  115 1    
    97   50   51 1    
    98   50   52 1    
    99   50  116 1    
   100   51  117 1    
   101   51  118 1    
   102   51  119 1    
   103   52   53 2    
   104   52   54 am   BACKBONE|DICT|INTERRES
   105   54   55 1    
   106   54  120 1    
   107   55   56 1    
   108   55   57 1    
   109   55  121 1    
   110   56  122 1    
   111   56  123 1    
   112   56  124 1    
   113   57   58 2    
   114   57   59 am   BACKBONE|DICT|INTERRES
   115   59   60 1    
   116   59  125 1    
   117   60   61 1    
   118   60   62 1    
   119   60  126 1    
   120   61  127 1    
   121   61  128 1    
   122   61  129 1    
   123   62   63 2    
   124   62   64 am   BACKBONE|DICT|INTERRES
   125   64   65 1    
   126   64  130 1    
   127   65   66 1    
   128   65   69 1    
   129   65  131 1    
   130   66   67 am   BACKBONE|DICT|INTERRES
   131   66   68 2    
   132   67  132 1    
   133   67  133 1    
   134   69   70 1    
   135   69  134 1    
   136   69  135 1    
   137   70   71 1    
   138   71  136 1    
   139   71  137 1    
@<TRIPOS>SUBSTRUCTURE
     1 UNK         1 GROUP             0       ****    0 ROOT    
