@<TRIPOS>MOLECULE
3R137
137   139    1
SMALL
USER_CHARGES


@<TRIPOS>ATOM
      1 CA         23.2077   -4.1888    1.0870 C.3       0 UNK        -0.2020 
      2 C          24.4308   -3.2890    1.1821 C.2       0 UNK         0.4855 
      3 O          24.4608   -2.3822    2.0149 O.2       0 UNK        -0.5197 
      4 N          25.4432   -3.5363    0.3416 N.am      1 UNK        -0.4892 
      5 CA         26.6547   -2.7188    0.2373 C.3       1 UNK         0.0835 
      6 C6         27.7722   -3.4812   -0.5186 C.3       12 UNK        -0.0855 
      7 S7         29.4052   -2.6769   -0.3664 S.3       12 UNK        -0.2931 
      8 C8         30.5238   -4.0411   -0.8040 C.3       12 UNK         0.0378 
      9 C9         30.5210   -4.3193   -2.2999 C.ar      12 UNK        -0.0802 
     10 C10        31.3959   -3.6269   -3.1433 C.ar      12 UNK        -0.0944 
     11 C11        31.4423   -3.9192   -4.5097 C.ar      12 UNK        -0.0787 
     12 C12        30.6033   -4.9072   -5.0304 C.ar      12 UNK        -0.0862 
     13 C13        29.6955   -5.5780   -4.2053 C.ar      12 UNK        -0.0733 
     14 C14        29.6659   -5.2864   -2.8382 C.ar      12 UNK        -0.0832 
     15 C15        28.7563   -6.6269   -4.7847 C.3       12 UNK         0.0240 
     16 S16        27.1435   -5.9143   -5.2454 S.3       12 UNK        -0.2522 
     17 C17        27.5688   -5.0538   -6.7973 C.3       12 UNK        -0.0967 
     18 CA         26.4928   -4.0442   -7.2623 C.3       5 UNK         0.0660 
     19 N          26.1734   -3.0674   -6.2171 N.am      5 UNK        -0.4015 
     20 C          25.2237   -2.1253   -6.2855 C.2       4 UNK         0.4946 
     21 O          24.4345   -2.0136   -7.2246 O.2       4 UNK        -0.5353 
     22 CA         25.1561   -1.1117   -5.1292 C.3       4 UNK         0.0277 
     23 CB         23.9951   -1.4602   -4.1848 C.3       4 UNK        -0.1981 
     24 N          26.3935   -0.9510   -4.3508 N.am      4 UNK        -0.4209 
     25 C          27.5860   -0.5738   -4.8470 C.2       3 UNK         0.4942 
     26 O          27.8053   -0.4583   -6.0536 O.2       3 UNK        -0.5208 
     27 CA         28.7322   -0.3036   -3.8476 C.3       3 UNK         0.0250 
     28 CB         29.7129    0.7696   -4.3613 C.3       3 UNK        -0.1990 
     29 N          28.2777    0.0198   -2.4897 N.am      3 UNK        -0.4232 
     30 C          27.5011    1.0468   -2.1026 C.2       2 UNK         0.4993 
     31 O          27.1350    1.9524   -2.8531 O.2       2 UNK        -0.5286 
     32 CA         27.0270    1.0371   -0.6312 C.3       2 UNK         0.0209 
     33 CB         25.6529    1.7187   -0.4534 C.3       2 UNK        -0.1931 
     34 N          27.0170   -0.3051   -0.0247 N.am      2 UNK        -0.4546 
     35 C          26.3416   -1.3806   -0.4604 C.2       1 UNK         0.5154 
     36 O          25.5821   -1.3677   -1.4317 O.2       1 UNK        -0.5181 
     37 C          26.9530   -3.3850   -8.5824 C.2       5 UNK         0.5014 
     38 O          26.7527   -3.9756   -9.6452 O.2       5 UNK        -0.5248 
     39 N          27.5653   -2.1955   -8.5001 N.am      6 UNK        -0.4434 
     40 CA         28.0598   -1.4278   -9.6385 C.3       6 UNK         0.0363 
     41 CB         29.5006   -1.8558   -9.9789 C.3       6 UNK        -0.1936 
     42 C          27.9331    0.0633   -9.3092 C.2       6 UNK         0.5081 
     43 O          28.9257    0.7924   -9.3441 O.2       6 UNK        -0.5248 
     44 N          26.7070    0.4921   -8.9765 N.am      7 UNK        -0.4718 
     45 CA         26.3775    1.8416   -8.4977 C.3       7 UNK         0.0273 
     46 CB         24.8733    1.9140   -8.1897 C.3       7 UNK        -0.1935 
     47 C          26.7757    2.9819   -9.4529 C.2       7 UNK         0.5018 
     48 O          27.1039    4.0724   -8.9858 O.2       7 UNK        -0.5186 
     49 N          26.7573    2.7050  -10.7645 N.am      8 UNK        -0.4240 
     50 CA         27.1987    3.6253  -11.8152 C.3       8 UNK         0.0235 
     51 CB         26.6858    3.1249  -13.1754 C.3       8 UNK        -0.2000 
     52 C          28.7264    3.8156  -11.8536 C.2       8 UNK         0.4941 
     53 O          29.1840    4.8862  -12.2554 O.2       8 UNK        -0.5273 
     54 N          29.4834    2.7864  -11.4474 N.am      9 UNK        -0.4262 
     55 CA         30.9439    2.8199  -11.3505 C.3       9 UNK         0.0264 
     56 CB         31.5103    1.4190  -11.6370 C.3       9 UNK        -0.1955 
     57 C          31.4092    3.3087   -9.9704 C.2       9 UNK         0.5031 
     58 O          32.4356    3.9852   -9.8961 O.2       9 UNK        -0.5390 
     59 N          30.6530    2.9505   -8.9195 N.am      10 UNK        -0.4204 
     60 CA         30.9146    3.1925   -7.4970 C.3       10 UNK         0.0237 
     61 CB         30.8944    4.7005   -7.1687 C.3       10 UNK        -0.1985 
     62 C          32.2057    2.4832   -7.0531 C.2       10 UNK         0.4970 
     63 O          33.1879    3.1353   -6.6957 O.2       10 UNK        -0.4914 
     64 N          32.1740    1.1469   -7.1271 N.am      11 UNK        -0.4285 
     65 CA         33.2947    0.2322   -6.8533 C.3       11 UNK         0.1007 
     66 C          33.8871    0.2449   -5.4100 C.2       11 UNK         0.5703 
     67 N          33.2810    0.9151   -4.4384 N.am      11 UNK        -0.7361 
     68 O          34.9282   -0.3631   -5.1726 O.2       11 UNK        -0.4986 
     69 C69        32.9608   -1.2058   -7.3348 C.3       12 UNK        -0.0947 
     70 S70        31.5457   -1.9653   -6.4615 S.3       12 UNK        -0.2240 
     71 C71        32.4091   -3.1848   -5.4245 C.3       12 UNK         0.0194 
     72 H72        23.0326   -4.6865    2.0404 H         1 UNK         0.0906 
     73 H73        22.3254   -3.5970    0.8443 H         1 UNK         0.0906 
     74 H74        23.3227   -4.9552    0.3207 H         1 UNK         0.0906 
     75 H75        25.3467   -4.2693   -0.3466 H         1 UNK         0.3140 
     76 H76        27.0006   -2.5117    1.2529 H         1 UNK         0.1085 
     77 H77        27.8579   -4.4910   -0.1137 H         1 UNK         0.0836 
     78 H78        27.5259   -3.5982   -1.5764 H         1 UNK         0.0836 
     79 H79        31.5334   -3.7803   -0.4828 H         1 UNK         0.0731 
     80 H80        30.2542   -4.9383   -0.2444 H         1 UNK         0.0731 
     81 H81        32.0504   -2.8702   -2.7322 H         1 UNK         0.1312 
     82 H82        30.6511   -5.1409   -6.0852 H         1 UNK         0.1406 
     83 H83        28.9791   -5.8170   -2.1927 H         1 UNK         0.1631 
     84 H84        29.2069   -7.1089   -5.6539 H         1 UNK         0.0717 
     85 H85        28.5927   -7.4182   -4.0516 H         1 UNK         0.0717 
     86 H86        28.5167   -4.5329   -6.6669 H         1 UNK         0.0934 
     87 H87        27.7391   -5.8121   -7.5647 H         1 UNK         0.0934 
     88 H88        25.5748   -4.5946   -7.4787 H         1 UNK         0.0739 
     89 H89        26.7583   -3.0935   -5.3953 H         1 UNK         0.3093 
     90 H90        24.9431   -0.1396   -5.5753 H         1 UNK         0.0818 
     91 H91        23.8415   -0.6783   -3.4406 H         1 UNK         0.0819 
     92 H92        23.0587   -1.5684   -4.7342 H         1 UNK         0.0819 
     93 H93        24.1742   -2.3968   -3.6552 H         1 UNK         0.0819 
     94 H94        26.2904   -1.0313   -3.3438 H         1 UNK         0.3041 
     95 H95        29.2842   -1.2418   -3.7669 H         1 UNK         0.0784 
     96 H96        30.1740    0.4536   -5.2958 H         1 UNK         0.0793 
     97 H97        29.2128    1.7197   -4.5510 H         1 UNK         0.0793 
     98 H98        30.5133    0.9455   -3.6438 H         1 UNK         0.0793 
     99 H99        28.5257   -0.6603   -1.7828 H         1 UNK         0.3024 
    100 H100       27.7625    1.6235   -0.0778 H         1 UNK         0.1171 
    101 H101       25.3358    1.7069    0.5894 H         1 UNK         0.0786 
    102 H102       25.6886    2.7628   -0.7670 H         1 UNK         0.0786 
    103 H103       24.8786    1.2289   -1.0450 H         1 UNK         0.0786 
    104 H104       27.6475   -0.4291    0.7566 H         1 UNK         0.2977 
    105 H105       27.6615   -1.7376   -7.5953 H         1 UNK         0.3127 
    106 H106       27.4283   -1.6128  -10.5101 H         1 UNK         0.0770 
    107 H107       30.1869   -1.6430   -9.1592 H         1 UNK         0.0814 
    108 H108       29.8653   -1.3275  -10.8598 H         1 UNK         0.0814 
    109 H109       29.5590   -2.9223  -10.1959 H         1 UNK         0.0814 
    110 H110       25.9569   -0.1852   -8.9600 H         1 UNK         0.2983 
    111 H111       26.9282    1.9925   -7.5661 H         1 UNK         0.0947 
    112 H112       24.6066    2.8865   -7.7733 H         1 UNK         0.0806 
    113 H113       24.5761    1.1601   -7.4623 H         1 UNK         0.0806 
    114 H114       24.2704    1.7667   -9.0867 H         1 UNK         0.0806 
    115 H115       26.4578    1.7846  -11.0518 H         1 UNK         0.3000 
    116 H116       26.7516    4.6028  -11.6205 H         1 UNK         0.0850 
    117 H117       26.9767    3.8067  -13.9760 H         1 UNK         0.0810 
    118 H118       25.5977    3.0579  -13.1896 H         1 UNK         0.0810 
    119 H119       27.0875    2.1416  -13.4235 H         1 UNK         0.0810 
    120 H120       29.0273    1.9634  -11.0727 H         1 UNK         0.3040 
    121 H121       31.3426    3.5036  -12.1033 H         1 UNK         0.0766 
    122 H122       31.1930    1.0532  -12.6136 H         1 UNK         0.0812 
    123 H123       31.1970    0.6929  -10.8866 H         1 UNK         0.0812 
    124 H124       32.6010    1.4347  -11.6351 H         1 UNK         0.0812 
    125 H125       29.8845    2.3075   -9.1075 H         1 UNK         0.3205 
    126 H126       30.0921    2.7288   -6.9496 H         1 UNK         0.0754 
    127 H127       31.0017    4.8648   -6.0959 H         1 UNK         0.0769 
    128 H128       29.9529    5.1567   -7.4753 H         1 UNK         0.0769 
    129 H129       31.7038    5.2401   -7.6612 H         1 UNK         0.0769 
    130 H130       31.3205    0.6994   -7.4289 H         1 UNK         0.2981 
    131 H131       34.1124    0.5855   -7.4840 H         1 UNK         0.0541 
    132 H132       32.4513    1.4494   -4.6312 H         1 UNK         0.3459 
    133 H133       33.6843    0.9164   -3.5154 H         1 UNK         0.3459 
    134 H134       33.8369   -1.8518   -7.2537 H         1 UNK         0.0612 
    135 H135       32.7178   -1.1854   -8.3982 H         1 UNK         0.0612 
    136 H136       33.1793   -2.6814   -4.8384 H         1 UNK         0.0624 
    137 H137       32.9244   -3.9027   -6.0642 H         1 UNK         0.0624 
@<TRIPOS>BOND
     1    1    2 1    
     2    1   72 1    
     3    1   73 1    
     4    1   74 1    
     5    2    3 2    
     6    2    4 am   BACKBONE|DICT|INTERRES
     7    4    5 1    
     8    4   75 1    
     9    5    6 1    
    10    5   35 1    
    11    5   76 1    
    12    6    7 1    
    13    6   77 1    
    14    6   78 1    
    15    7    8 1    
    16    8    9 1    
    17    8   79 1    
    18    8   80 1    
    19    9   10 ar   
    20    9   14 ar   
    21   10   11 ar   
    22   10   81 1    
    23   11   12 ar   
    24   11   71 1    
    25   12   13 ar   
    26   12   82 1    
    27   13   14 ar   
    28   13   15 1    
    29   14   83 1    
    30   15   16 1    
    31   15   84 1    
    32   15   85 1    
    33   16   17 1    
    34   17   18 1    
    35   17   86 1    
    36   17   87 1    
    37   18   19 1    
    38   18   37 1    
    39   18   88 1    
    40   19   20 am   BACKBONE|DICT|INTERRES
    41   19   89 1    
    42   20   21 2    
    43   20   22 1    
    44   22   23 1    
    45   22   24 1    
    46   22   90 1    
    47   23   91 1    
    48   23   92 1    
    49   23   93 1    
    50   24   25 am   BACKBONE|DICT|INTERRES
    51   24   94 1    
    52   25   26 2    
    53   25   27 1    
    54   27   28 1    
    55   27   29 1    
    56   27   95 1    
    57   28   96 1    
    58   28   97 1    
    59   28   98 1    
    60   29   30 am   BACKBONE|DICT|INTERRES
    61   29   99 1    
    62   30   31 2    
    63   30   32 1    
    64   32   33 1    
    65   32   34 1    
    66   32  100 1    
    67   33  101 1    
    68   33  102 1    
    69   33  103 1    
    70   34   35 am   BACKBONE|DICT|INTERRES
    71   34  104 1    
    72   35   36 2    
    73   37   38 2    
    74   37   39 am   BACKBONE|DICT|INTERRES
    75   39   40 1    
    76   39  105 1    
    77   40   41 1    
    78   40   42 1    
    79   40  106 1    
    80   41  107 1    
    81   41  108 1    
    82   41  109 1    
    83   42   43 2    
    84   42   44 am   BACKBONE|DICT|INTERRES
    85   44   45 1    
    86   44  110 1    
    87   45   46 1    
    88   45   47 1    
    89   45  111 1    
    90   46  112 1    
    91   46  113 1    
    92   46  114 1    
    93   47   48 2    
    94   47   49 am   BACKBONE|DICT|INTERRES
    95   49   50 1    
    96   49  115 1    
    97   50   51 1    
    98   50   52 1    
    99   50  116 1    
   100   51  117 1    
   101   51  118 1    
   102   51  119 1    
   103   52   53 2    
   104   52   54 am   BACKBONE|DICT|INTERRES
   105   54   55 1    
   106   54  120 1    
   107   55   56 1    
   108   55   57 1    
   109   55  121 1    
   110   56  122 1    
   111   56  123 1    
   112   56  124 1    
   113   57   58 2    
   114   57   59 am   BACKBONE|DICT|INTERRES
   115   59   60 1    
   116   59  125 1    
   117   60   61 1    
   118   60   62 1    
   119   60  126 1    
   120   61  127 1    
   121   61  128 1    
   122   61  129 1    
   123   62   63 2    
   124   62   64 am   BACKBONE|DICT|INTERRES
   125   64   65 1    
   126   64  130 1    
   127   65   66 1    
   128   65   69 1    
   129   65  131 1    
   130   66   67 am   BACKBONE|DICT|INTERRES
   131   66   68 2    
   132   67  132 1    
   133   67  133 1    
   134   69   70 1    
   135   69  134 1    
   136   69  135 1    
   137   70   71 1    
   138   71  136 1    
   139   71  137 1    
@<TRIPOS>SUBSTRUCTURE
     1 UNK         1 GROUP             0       ****    0 ROOT    
