@<TRIPOS>MOLECULE
3R137
137   139    1
SMALL
USER_CHARGES


@<TRIPOS>ATOM
      1 CA         25.3011   -6.6774    0.5763 C.3       0 UNK        -0.2020 
      2 C          26.0295   -5.3497    0.4320 C.2       0 UNK         0.4855 
      3 O          26.0913   -4.5784    1.3895 O.2       0 UNK        -0.5197 
      4 N          26.5834   -5.0782   -0.7571 N.am      1 UNK        -0.4892 
      5 CA         27.3293   -3.8527   -1.0752 C.3       1 UNK         0.0835 
      6 C6         28.1117   -3.9861   -2.4032 C.3       12 UNK        -0.0855 
      7 S7         29.4153   -5.2599   -2.3441 S.3       12 UNK        -0.2931 
      8 C8         30.7277   -4.4323   -1.3824 C.3       12 UNK         0.0378 
      9 C9         31.1376   -3.0911   -1.9765 C.ar      12 UNK        -0.0802 
     10 C10        31.8802   -3.0430   -3.1579 C.ar      12 UNK        -0.0944 
     11 C11        32.2519   -1.8159   -3.7148 C.ar      12 UNK        -0.0787 
     12 C12        31.8860   -0.6272   -3.0733 C.ar      12 UNK        -0.0862 
     13 C13        31.1444   -0.6621   -1.8860 C.ar      12 UNK        -0.0733 
     14 C14        30.7746   -1.8978   -1.3448 C.ar      12 UNK        -0.0832 
     15 C15        30.7587    0.6229   -1.1580 C.3       12 UNK         0.0240 
     16 S16        29.8413    1.8175   -2.1874 S.3       12 UNK        -0.2522 
     17 C17        28.4147    0.8424   -2.7779 C.3       12 UNK        -0.0967 
     18 CA         28.3043    0.8974   -4.3218 C.3       5 UNK         0.0660 
     19 N          27.7359   -0.3289   -4.8820 N.am      5 UNK        -0.4015 
     20 C          28.0495   -0.8042   -6.0958 C.2       4 UNK         0.4946 
     21 O          28.9048   -0.3040   -6.8237 O.2       4 UNK        -0.5353 
     22 CA         27.2811   -2.0402   -6.5972 C.3       4 UNK         0.0277 
     23 CB         28.1000   -3.3182   -6.3531 C.3       4 UNK        -0.1981 
     24 N          25.9443   -2.1833   -6.0090 N.am      4 UNK        -0.4209 
     25 C          24.9212   -1.3601   -6.2800 C.2       3 UNK         0.4942 
     26 O          25.0016   -0.3958   -7.0382 O.2       3 UNK        -0.5208 
     27 CA         23.5930   -1.6241   -5.5538 C.3       3 UNK         0.0250 
     28 CB         22.7992   -2.7301   -6.2675 C.3       3 UNK        -0.1990 
     29 N          23.7211   -1.9513   -4.1295 N.am      3 UNK        -0.4232 
     30 C          24.3591   -1.2165   -3.2061 C.2       2 UNK         0.4993 
     31 O          25.0522   -0.2319   -3.4678 O.2       2 UNK        -0.5286 
     32 CA         24.2209   -1.6824   -1.7491 C.3       2 UNK         0.0209 
     33 CB         22.7910   -2.1354   -1.3942 C.3       2 UNK        -0.1931 
     34 N          25.1589   -2.7722   -1.4907 N.am      2 UNK        -0.4546 
     35 C          26.4382   -2.5966   -1.1352 C.2       1 UNK         0.5154 
     36 O          26.9323   -1.4992   -0.8782 O.2       1 UNK        -0.5181 
     37 C          27.5116    2.1286   -4.8033 C.2       5 UNK         0.5014 
     38 O          28.1179    3.1621   -5.0864 O.2       5 UNK        -0.5248 
     39 N          26.1780    1.9992   -4.9036 N.am      6 UNK        -0.4434 
     40 CA         25.2741    3.0224   -5.4365 C.3       6 UNK         0.0363 
     41 CB         23.8143    2.5918   -5.2209 C.3       6 UNK        -0.1936 
     42 C          25.5518    3.3270   -6.9182 C.2       6 UNK         0.5081 
     43 O          25.7632    4.4871   -7.2734 O.2       6 UNK        -0.5248 
     44 N          25.6119    2.2778   -7.7477 N.am      7 UNK        -0.4718 
     45 CA         26.0739    2.3326   -9.1342 C.3       7 UNK         0.0273 
     46 CB         25.2981    1.2949   -9.9668 C.3       7 UNK        -0.1935 
     47 C          27.5927    2.0959   -9.1584 C.2       7 UNK         0.5018 
     48 O          28.0491    1.0819   -9.6889 O.2       7 UNK        -0.5186 
     49 N          28.3373    3.0370   -8.5563 N.am      8 UNK        -0.4240 
     50 CA         29.7692    2.9700   -8.2289 C.3       8 UNK         0.0235 
     51 CB         30.2283    4.3352   -7.6920 C.3       8 UNK        -0.2000 
     52 C          30.7046    2.5107   -9.3591 C.2       8 UNK         0.4941 
     53 O          31.7187    1.8740   -9.0753 O.2       8 UNK        -0.5273 
     54 N          30.3345    2.7863  -10.6177 N.am      9 UNK        -0.4262 
     55 CA         31.0138    2.3141  -11.8291 C.3       9 UNK         0.0264 
     56 CB         30.2915    2.8854  -13.0602 C.3       9 UNK        -0.1955 
     57 C          31.1392    0.7792  -11.9429 C.2       9 UNK         0.5031 
     58 O          31.9888    0.3095  -12.7014 O.2       9 UNK        -0.5390 
     59 N          30.3196    0.0263  -11.1928 N.am      10 UNK        -0.4204 
     60 CA         30.3831   -1.4309  -11.0839 C.3       10 UNK         0.0237 
     61 CB         29.1564   -1.9354  -10.3062 C.3       10 UNK        -0.1985 
     62 C          31.6749   -1.9643  -10.4349 C.2       10 UNK         0.4970 
     63 O          32.0638   -3.0871  -10.7623 O.2       10 UNK        -0.4914 
     64 N          32.3111   -1.1928   -9.5394 N.am      11 UNK        -0.4285 
     65 CA         33.5060   -1.6361   -8.7973 C.3       11 UNK         0.1007 
     66 C          34.4618   -0.5148   -8.3027 C.2       11 UNK         0.5703 
     67 N          34.1476    0.7662   -8.4332 N.am      11 UNK        -0.7361 
     68 O          35.5466   -0.8163   -7.8099 O.2       11 UNK        -0.4986 
     69 C69        33.1769   -2.6759   -7.6881 C.3       12 UNK        -0.0947 
     70 S70        31.9773   -2.0906   -6.4420 S.3       12 UNK        -0.2240 
     71 C71        33.0537   -1.7936   -5.0064 C.3       12 UNK         0.0194 
     72 H72        25.7577   -7.2712    1.3678 H         1 UNK         0.0906 
     73 H73        24.2572   -6.5062    0.8379 H         1 UNK         0.0906 
     74 H74        25.3290   -7.2612   -0.3436 H         1 UNK         0.0906 
     75 H75        26.5355   -5.7652   -1.4969 H         1 UNK         0.3140 
     76 H76        28.0433   -3.6798   -0.2674 H         1 UNK         0.1085 
     77 H77        28.5600   -3.0366   -2.7018 H         1 UNK         0.0836 
     78 H78        27.4279   -4.2500   -3.2117 H         1 UNK         0.0836 
     79 H79        31.5988   -5.0878   -1.3428 H         1 UNK         0.0731 
     80 H80        30.3955   -4.3132   -0.3502 H         1 UNK         0.0731 
     81 H81        32.1574   -3.9636   -3.6535 H         1 UNK         0.1312 
     82 H82        32.1738    0.3251   -3.4975 H         1 UNK         0.1406 
     83 H83        30.2006   -1.9310   -0.4285 H         1 UNK         0.1631 
     84 H84        31.6671    1.1035   -0.7927 H         1 UNK         0.0717 
     85 H85        30.1554    0.4018   -0.2760 H         1 UNK         0.0717 
     86 H86        28.5475   -0.1898   -2.4552 H         1 UNK         0.0934 
     87 H87        27.5014    1.1830   -2.2851 H         1 UNK         0.0934 
     88 H88        29.3166    0.9958   -4.7222 H         1 UNK         0.0739 
     89 H89        26.9732   -0.7479   -4.3663 H         1 UNK         0.3093 
     90 H90        27.1558   -1.9227   -7.6762 H         1 UNK         0.0818 
     91 H91        28.3154   -3.4681   -5.2958 H         1 UNK         0.0819 
     92 H92        27.5844   -4.2032   -6.7258 H         1 UNK         0.0819 
     93 H93        29.0595   -3.2631   -6.8697 H         1 UNK         0.0819 
     94 H94        25.7923   -2.9554   -5.3770 H         1 UNK         0.3041 
     95 H95        23.0085   -0.7040   -5.6132 H         1 UNK         0.0784 
     96 H96        22.6773   -2.5012   -7.3274 H         1 UNK         0.0793 
     97 H97        23.2983   -3.6974   -6.1984 H         1 UNK         0.0793 
     98 H98        21.7994   -2.8368   -5.8461 H         1 UNK         0.0793 
     99 H99        23.1960   -2.7525   -3.8112 H         1 UNK         0.3024 
    100 H100       24.4646   -0.8269   -1.1139 H         1 UNK         0.1171 
    101 H101       22.5013   -3.0534   -1.9061 H         1 UNK         0.0786 
    102 H102       22.6973   -2.3163   -0.3231 H         1 UNK         0.0786 
    103 H103       22.0609   -1.3670   -1.6532 H         1 UNK         0.0786 
    104 H104       24.8407   -3.7132   -1.6716 H         1 UNK         0.2977 
    105 H105       25.7477    1.1376   -4.5765 H         1 UNK         0.3127 
    106 H106       25.4442    3.9404   -4.8700 H         1 UNK         0.0770 
    107 H107       23.5785    1.6739   -5.7592 H         1 UNK         0.0814 
    108 H108       23.1260    3.3615   -5.5723 H         1 UNK         0.0814 
    109 H109       23.6022    2.4233   -4.1649 H         1 UNK         0.0814 
    110 H110       25.4399    1.3434   -7.3772 H         1 UNK         0.2983 
    111 H111       25.8782    3.3191   -9.5604 H         1 UNK         0.0947 
    112 H112       25.6013    1.3308  -11.0139 H         1 UNK         0.0806 
    113 H113       24.2247    1.4806   -9.9315 H         1 UNK         0.0806 
    114 H114       25.4729    0.2782   -9.6123 H         1 UNK         0.0806 
    115 H115       27.8331    3.8097   -8.1400 H         1 UNK         0.3000 
    116 H116       29.8664    2.2379   -7.4244 H         1 UNK         0.0850 
    117 H117       31.2807    4.3088   -7.4053 H         1 UNK         0.0810 
    118 H118       29.6628    4.6254   -6.8064 H         1 UNK         0.0810 
    119 H119       30.1117    5.1220   -8.4383 H         1 UNK         0.0810 
    120 H120       29.4753    3.2989  -10.7517 H         1 UNK         0.3040 
    121 H121       32.0290    2.7156  -11.8081 H         1 UNK         0.0766 
    122 H122       30.2815    3.9755  -13.0463 H         1 UNK         0.0812 
    123 H123       29.2588    2.5387  -13.1179 H         1 UNK         0.0812 
    124 H124       30.7892    2.5807  -13.9820 H         1 UNK         0.0812 
    125 H125       29.6177    0.4894  -10.6173 H         1 UNK         0.3205 
    126 H126       30.3348   -1.8375  -12.0961 H         1 UNK         0.0754 
    127 H127       29.1520   -3.0242  -10.2400 H         1 UNK         0.0769 
    128 H128       28.2265   -1.6344  -10.7893 H         1 UNK         0.0769 
    129 H129       29.1438   -1.5461   -9.2872 H         1 UNK         0.0769 
    130 H130       31.9508   -0.2734   -9.3146 H         1 UNK         0.2981 
    131 H131       34.1280   -2.1591   -9.5263 H         1 UNK         0.0541 
    132 H132       34.8106    1.4528   -8.1126 H         1 UNK         0.3459 
    133 H133       33.2420    1.0824   -8.7753 H         1 UNK         0.3459 
    134 H134       32.7497   -3.5698   -8.1440 H         1 UNK         0.0612 
    135 H135       34.0886   -3.0222   -7.1991 H         1 UNK         0.0612 
    136 H136       33.5669   -0.8391   -5.1327 H         1 UNK         0.0624 
    137 H137       33.8286   -2.5596   -4.9547 H         1 UNK         0.0624 
@<TRIPOS>BOND
     1    1    2 1    
     2    1   72 1    
     3    1   73 1    
     4    1   74 1    
     5    2    3 2    
     6    2    4 am   BACKBONE|DICT|INTERRES
     7    4    5 1    
     8    4   75 1    
     9    5    6 1    
    10    5   35 1    
    11    5   76 1    
    12    6    7 1    
    13    6   77 1    
    14    6   78 1    
    15    7    8 1    
    16    8    9 1    
    17    8   79 1    
    18    8   80 1    
    19    9   10 ar   
    20    9   14 ar   
    21   10   11 ar   
    22   10   81 1    
    23   11   12 ar   
    24   11   71 1    
    25   12   13 ar   
    26   12   82 1    
    27   13   14 ar   
    28   13   15 1    
    29   14   83 1    
    30   15   16 1    
    31   15   84 1    
    32   15   85 1    
    33   16   17 1    
    34   17   18 1    
    35   17   86 1    
    36   17   87 1    
    37   18   19 1    
    38   18   37 1    
    39   18   88 1    
    40   19   20 am   BACKBONE|DICT|INTERRES
    41   19   89 1    
    42   20   21 2    
    43   20   22 1    
    44   22   23 1    
    45   22   24 1    
    46   22   90 1    
    47   23   91 1    
    48   23   92 1    
    49   23   93 1    
    50   24   25 am   BACKBONE|DICT|INTERRES
    51   24   94 1    
    52   25   26 2    
    53   25   27 1    
    54   27   28 1    
    55   27   29 1    
    56   27   95 1    
    57   28   96 1    
    58   28   97 1    
    59   28   98 1    
    60   29   30 am   BACKBONE|DICT|INTERRES
    61   29   99 1    
    62   30   31 2    
    63   30   32 1    
    64   32   33 1    
    65   32   34 1    
    66   32  100 1    
    67   33  101 1    
    68   33  102 1    
    69   33  103 1    
    70   34   35 am   BACKBONE|DICT|INTERRES
    71   34  104 1    
    72   35   36 2    
    73   37   38 2    
    74   37   39 am   BACKBONE|DICT|INTERRES
    75   39   40 1    
    76   39  105 1    
    77   40   41 1    
    78   40   42 1    
    79   40  106 1    
    80   41  107 1    
    81   41  108 1    
    82   41  109 1    
    83   42   43 2    
    84   42   44 am   BACKBONE|DICT|INTERRES
    85   44   45 1    
    86   44  110 1    
    87   45   46 1    
    88   45   47 1    
    89   45  111 1    
    90   46  112 1    
    91   46  113 1    
    92   46  114 1    
    93   47   48 2    
    94   47   49 am   BACKBONE|DICT|INTERRES
    95   49   50 1    
    96   49  115 1    
    97   50   51 1    
    98   50   52 1    
    99   50  116 1    
   100   51  117 1    
   101   51  118 1    
   102   51  119 1    
   103   52   53 2    
   104   52   54 am   BACKBONE|DICT|INTERRES
   105   54   55 1    
   106   54  120 1    
   107   55   56 1    
   108   55   57 1    
   109   55  121 1    
   110   56  122 1    
   111   56  123 1    
   112   56  124 1    
   113   57   58 2    
   114   57   59 am   BACKBONE|DICT|INTERRES
   115   59   60 1    
   116   59  125 1    
   117   60   61 1    
   118   60   62 1    
   119   60  126 1    
   120   61  127 1    
   121   61  128 1    
   122   61  129 1    
   123   62   63 2    
   124   62   64 am   BACKBONE|DICT|INTERRES
   125   64   65 1    
   126   64  130 1    
   127   65   66 1    
   128   65   69 1    
   129   65  131 1    
   130   66   67 am   BACKBONE|DICT|INTERRES
   131   66   68 2    
   132   67  132 1    
   133   67  133 1    
   134   69   70 1    
   135   69  134 1    
   136   69  135 1    
   137   70   71 1    
   138   71  136 1    
   139   71  137 1    
@<TRIPOS>SUBSTRUCTURE
     1 UNK         1 GROUP             0       ****    0 ROOT    
