@<TRIPOS>MOLECULE
3R137
137   139    1
SMALL
USER_CHARGES


@<TRIPOS>ATOM
      1 CA         31.1007   -5.0020   -5.5281 C.3       0 UNK        -0.2020 
      2 C          29.8141   -5.5754   -4.9562 C.2       0 UNK         0.4855 
      3 O          29.3697   -6.6368   -5.3933 O.2       0 UNK        -0.5197 
      4 N          29.2144   -4.8853   -3.9776 N.am      1 UNK        -0.4892 
      5 CA         28.0210   -5.3436   -3.2505 C.3       1 UNK         0.0835 
      6 C6         27.9398   -4.7328   -1.8301 C.3       12 UNK        -0.0855 
      7 S7         29.3843   -5.2129   -0.8225 S.3       12 UNK        -0.2931 
      8 C8         29.6677   -3.7193    0.1820 C.3       12 UNK         0.0378 
      9 C9         30.0474   -2.4882   -0.6354 C.ar      12 UNK        -0.0802 
     10 C10        31.0674   -2.5411   -1.5921 C.ar      12 UNK        -0.0944 
     11 C11        31.4412   -1.3944   -2.3013 C.ar      12 UNK        -0.0787 
     12 C12        30.7961   -0.1822   -2.0337 C.ar      12 UNK        -0.0862 
     13 C13        29.7723   -0.1169   -1.0840 C.ar      12 UNK        -0.0733 
     14 C14        29.4002   -1.2732   -0.3934 C.ar      12 UNK        -0.0832 
     15 C15        29.0850    1.2034   -0.7705 C.3       12 UNK         0.0240 
     16 S16        27.5485    1.4116   -1.7236 S.3       12 UNK        -0.2522 
     17 C17        28.1762    1.9883   -3.3371 C.3       12 UNK        -0.0967 
     18 CA         27.8184    1.0204   -4.5032 C.3       5 UNK         0.0660 
     19 N          26.3746    0.7955   -4.6415 N.am      5 UNK        -0.4015 
     20 C          25.4559    1.7048   -5.0006 C.2       4 UNK         0.4946 
     21 O          25.7309    2.8695   -5.2965 O.2       4 UNK        -0.5353 
     22 CA         23.9835    1.2532   -5.0537 C.3       4 UNK         0.0277 
     23 CB         23.3580    1.5665   -6.4231 C.3       4 UNK        -0.1981 
     24 N          23.8000   -0.1726   -4.7696 N.am      4 UNK        -0.4209 
     25 C          23.6212   -0.7120   -3.5592 C.2       3 UNK         0.4942 
     26 O          23.6301   -0.0601   -2.5153 O.2       3 UNK        -0.5208 
     27 CA         23.3897   -2.2340   -3.4921 C.3       3 UNK         0.0250 
     28 CB         21.9373   -2.5827   -3.8719 C.3       3 UNK        -0.1990 
     29 N          24.3472   -3.0580   -4.2479 N.am      3 UNK        -0.4232 
     30 C          24.5820   -3.1086   -5.5673 C.2       2 UNK         0.4993 
     31 O          24.0103   -2.3855   -6.3847 O.2       2 UNK        -0.5286 
     32 CA         25.6354   -4.1252   -6.0606 C.3       2 UNK         0.0209 
     33 CB         26.2135   -3.7409   -7.4349 C.3       2 UNK        -0.1931 
     34 N          26.7495   -4.3497   -5.1289 N.am      2 UNK        -0.4546 
     35 C          26.7080   -5.1163   -4.0298 C.2       1 UNK         0.5154 
     36 O          25.6679   -5.6291   -3.6153 O.2       1 UNK        -0.5181 
     37 C          28.4216    1.4268   -5.8667 C.2       5 UNK         0.5014 
     38 O          28.1840    0.7285   -6.8550 O.2       5 UNK        -0.5248 
     39 N          29.1573    2.5481   -5.9124 N.am      6 UNK        -0.4434 
     40 CA         29.8581    3.0837   -7.0853 C.3       6 UNK         0.0363 
     41 CB         30.6936    4.2983   -6.6487 C.3       6 UNK        -0.1936 
     42 C          28.9582    3.4504   -8.2817 C.2       6 UNK         0.5081 
     43 O          29.4732    3.6343   -9.3847 O.2       6 UNK        -0.5248 
     44 N          27.6416    3.5597   -8.0593 N.am      7 UNK        -0.4718 
     45 CA         26.6487    3.7838   -9.1102 C.3       7 UNK         0.0273 
     46 CB         25.4004    4.4284   -8.4879 C.3       7 UNK        -0.1935 
     47 C          26.2765    2.5027   -9.8827 C.2       7 UNK         0.5018 
     48 O          25.6346    2.6201  -10.9279 O.2       7 UNK        -0.5186 
     49 N          26.6558    1.3199   -9.3741 N.am      8 UNK        -0.4240 
     50 CA         26.3398    0.0222   -9.9791 C.3       8 UNK         0.0235 
     51 CB         25.2266   -0.6652   -9.1725 C.3       8 UNK        -0.2000 
     52 C          27.5703   -0.8868  -10.1082 C.2       8 UNK         0.4941 
     53 O          27.7342   -1.5198  -11.1524 O.2       8 UNK        -0.5273 
     54 N          28.4087   -0.9449   -9.0675 N.am      9 UNK        -0.4262 
     55 CA         29.6603   -1.7013   -9.0412 C.3       9 UNK         0.0264 
     56 CB         29.8006   -2.3698   -7.6632 C.3       9 UNK        -0.1955 
     57 C          30.8492   -0.7668   -9.2988 C.2       9 UNK         0.5031 
     58 O          30.7240    0.4503   -9.1557 O.2       9 UNK        -0.5390 
     59 N          32.0149   -1.3485   -9.6083 N.am      10 UNK        -0.4204 
     60 CA         33.2877   -0.6430   -9.8127 C.3       10 UNK         0.0237 
     61 CB         34.2164   -1.5314  -10.6627 C.3       10 UNK        -0.1985 
     62 C          33.9500   -0.1857   -8.4913 C.2       10 UNK         0.4970 
     63 O          35.1595   -0.3494   -8.3204 O.2       10 UNK        -0.4914 
     64 N          33.1461    0.3688   -7.5783 N.am      11 UNK        -0.4285 
     65 CA         33.5579    0.8611   -6.2543 C.3       11 UNK         0.1007 
     66 C          34.0804    2.3269   -6.2628 C.2       11 UNK         0.5703 
     67 N          34.0315    3.0488   -7.3766 N.am      11 UNK        -0.7361 
     68 O          34.5513    2.8162   -5.2390 O.2       11 UNK        -0.4986 
     69 C69        32.4323    0.6660   -5.2036 C.3       12 UNK        -0.0947 
     70 S70        31.9641   -1.0881   -5.0120 S.3       12 UNK        -0.2240 
     71 C71        32.5597   -1.4669   -3.3333 C.3       12 UNK         0.0194 
     72 H72        31.0803   -5.0418   -6.6166 H         1 UNK         0.0906 
     73 H73        31.2523   -3.9668   -5.2262 H         1 UNK         0.0906 
     74 H74        31.9544   -5.5852   -5.1843 H         1 UNK         0.0906 
     75 H75        29.6317   -4.0304   -3.6363 H         1 UNK         0.3140 
     76 H76        28.0996   -6.4269   -3.1295 H         1 UNK         0.1085 
     77 H77        27.8617   -3.6455   -1.8860 H         1 UNK         0.0836 
     78 H78        27.0455   -5.0777   -1.3070 H         1 UNK         0.0836 
     79 H79        28.7735   -3.5306    0.7785 H         1 UNK         0.0731 
     80 H80        30.4708   -3.9243    0.8911 H         1 UNK         0.0731 
     81 H81        31.5771   -3.4775   -1.7747 H         1 UNK         0.1312 
     82 H82        31.0940    0.7107   -2.5636 H         1 UNK         0.1406 
     83 H83        28.6148   -1.2186    0.3488 H         1 UNK         0.1631 
     84 H84        29.7568    2.0443   -0.9497 H         1 UNK         0.0717 
     85 H85        28.8396    1.2417    0.2920 H         1 UNK         0.0717 
     86 H86        27.7599    2.9821   -3.5123 H         1 UNK         0.0934 
     87 H87        29.2567    2.1178   -3.2641 H         1 UNK         0.0934 
     88 H88        28.2580    0.0490   -4.2699 H         1 UNK         0.0739 
     89 H89        26.0539   -0.1388   -4.4402 H         1 UNK         0.3093 
     90 H90        23.4457    1.8325   -4.3003 H         1 UNK         0.0818 
     91 H91        22.3444    1.1728   -6.5003 H         1 UNK         0.0819 
     92 H92        23.2931    2.6429   -6.5814 H         1 UNK         0.0819 
     93 H93        23.9456    1.1483   -7.2397 H         1 UNK         0.0819 
     94 H94        23.8007   -0.8140   -5.5633 H         1 UNK         0.3041 
     95 H95        23.5266   -2.5190   -2.4475 H         1 UNK         0.0784 
     96 H96        21.2290   -2.0294   -3.2537 H         1 UNK         0.0793 
     97 H97        21.7167   -2.3407   -4.9121 H         1 UNK         0.0793 
     98 H98        21.7342   -3.6436   -3.7254 H         1 UNK         0.0793 
     99 H99        24.8555   -3.7367   -3.6918 H         1 UNK         0.3024 
    100 H100       25.1037   -5.0717   -6.1837 H         1 UNK         0.1171 
    101 H101       25.4280   -3.6848   -8.1893 H         1 UNK         0.0786 
    102 H102       26.9356   -4.4787   -7.7851 H         1 UNK         0.0786 
    103 H103       26.7075   -2.7697   -7.4033 H         1 UNK         0.0786 
    104 H104       27.6404   -3.9472   -5.3803 H         1 UNK         0.2977 
    105 H105       29.2506    3.0885   -5.0654 H         1 UNK         0.3127 
    106 H106       30.5457    2.3127   -7.4319 H         1 UNK         0.0770 
    107 H107       30.0643    5.1092   -6.2798 H         1 UNK         0.0814 
    108 H108       31.2753    4.6917   -7.4837 H         1 UNK         0.0814 
    109 H109       31.4019    4.0354   -5.8630 H         1 UNK         0.0814 
    110 H110       27.2889    3.3990   -7.1238 H         1 UNK         0.2983 
    111 H111       27.0593    4.4871   -9.8384 H         1 UNK         0.0947 
    112 H112       24.6440    4.6347   -9.2465 H         1 UNK         0.0806 
    113 H113       25.6412    5.3757   -8.0053 H         1 UNK         0.0806 
    114 H114       24.9457    3.7793   -7.7415 H         1 UNK         0.0806 
    115 H115       27.2100    1.3089   -8.5238 H         1 UNK         0.3000 
    116 H116       25.9675    0.1655  -10.9959 H         1 UNK         0.0850 
    117 H117       25.0275   -1.6683   -9.5511 H         1 UNK         0.0810 
    118 H118       25.4883   -0.7552   -8.1178 H         1 UNK         0.0810 
    119 H119       24.2924   -0.1084   -9.2406 H         1 UNK         0.0810 
    120 H120       28.2571   -0.3388   -8.2623 H         1 UNK         0.3040 
    121 H121       29.6600   -2.4765   -9.8104 H         1 UNK         0.0766 
    122 H122       29.0739   -3.1701   -7.5362 H         1 UNK         0.0812 
    123 H123       29.6589   -1.6549   -6.8521 H         1 UNK         0.0812 
    124 H124       30.7882   -2.8129   -7.5350 H         1 UNK         0.0812 
    125 H125       32.0506   -2.3563   -9.6663 H         1 UNK         0.3205 
    126 H126       33.0865    0.2635  -10.3878 H         1 UNK         0.0754 
    127 H127       35.1445   -1.0117  -10.9052 H         1 UNK         0.0769 
    128 H128       33.7481   -1.8050  -11.6085 H         1 UNK         0.0769 
    129 H129       34.4835   -2.4512  -10.1408 H         1 UNK         0.0769 
    130 H130       32.1708    0.4941   -7.8288 H         1 UNK         0.2981 
    131 H131       34.4066    0.2598   -5.9229 H         1 UNK         0.0541 
    132 H132       33.6578    2.6571   -8.2254 H         1 UNK         0.3459 
    133 H133       34.3835    3.9928   -7.3670 H         1 UNK         0.3459 
    134 H134       31.5425    1.2228   -5.4922 H         1 UNK         0.0612 
    135 H135       32.7357    1.0671   -4.2357 H         1 UNK         0.0612 
    136 H136       32.9929   -2.4681   -3.3520 H         1 UNK         0.0624 
    137 H137       33.3711   -0.7956   -3.0498 H         1 UNK         0.0624 
@<TRIPOS>BOND
     1    1    2 1    
     2    1   72 1    
     3    1   73 1    
     4    1   74 1    
     5    2    3 2    
     6    2    4 am   BACKBONE|DICT|INTERRES
     7    4    5 1    
     8    4   75 1    
     9    5    6 1    
    10    5   35 1    
    11    5   76 1    
    12    6    7 1    
    13    6   77 1    
    14    6   78 1    
    15    7    8 1    
    16    8    9 1    
    17    8   79 1    
    18    8   80 1    
    19    9   10 ar   
    20    9   14 ar   
    21   10   11 ar   
    22   10   81 1    
    23   11   12 ar   
    24   11   71 1    
    25   12   13 ar   
    26   12   82 1    
    27   13   14 ar   
    28   13   15 1    
    29   14   83 1    
    30   15   16 1    
    31   15   84 1    
    32   15   85 1    
    33   16   17 1    
    34   17   18 1    
    35   17   86 1    
    36   17   87 1    
    37   18   19 1    
    38   18   37 1    
    39   18   88 1    
    40   19   20 am   BACKBONE|DICT|INTERRES
    41   19   89 1    
    42   20   21 2    
    43   20   22 1    
    44   22   23 1    
    45   22   24 1    
    46   22   90 1    
    47   23   91 1    
    48   23   92 1    
    49   23   93 1    
    50   24   25 am   BACKBONE|DICT|INTERRES
    51   24   94 1    
    52   25   26 2    
    53   25   27 1    
    54   27   28 1    
    55   27   29 1    
    56   27   95 1    
    57   28   96 1    
    58   28   97 1    
    59   28   98 1    
    60   29   30 am   BACKBONE|DICT|INTERRES
    61   29   99 1    
    62   30   31 2    
    63   30   32 1    
    64   32   33 1    
    65   32   34 1    
    66   32  100 1    
    67   33  101 1    
    68   33  102 1    
    69   33  103 1    
    70   34   35 am   BACKBONE|DICT|INTERRES
    71   34  104 1    
    72   35   36 2    
    73   37   38 2    
    74   37   39 am   BACKBONE|DICT|INTERRES
    75   39   40 1    
    76   39  105 1    
    77   40   41 1    
    78   40   42 1    
    79   40  106 1    
    80   41  107 1    
    81   41  108 1    
    82   41  109 1    
    83   42   43 2    
    84   42   44 am   BACKBONE|DICT|INTERRES
    85   44   45 1    
    86   44  110 1    
    87   45   46 1    
    88   45   47 1    
    89   45  111 1    
    90   46  112 1    
    91   46  113 1    
    92   46  114 1    
    93   47   48 2    
    94   47   49 am   BACKBONE|DICT|INTERRES
    95   49   50 1    
    96   49  115 1    
    97   50   51 1    
    98   50   52 1    
    99   50  116 1    
   100   51  117 1    
   101   51  118 1    
   102   51  119 1    
   103   52   53 2    
   104   52   54 am   BACKBONE|DICT|INTERRES
   105   54   55 1    
   106   54  120 1    
   107   55   56 1    
   108   55   57 1    
   109   55  121 1    
   110   56  122 1    
   111   56  123 1    
   112   56  124 1    
   113   57   58 2    
   114   57   59 am   BACKBONE|DICT|INTERRES
   115   59   60 1    
   116   59  125 1    
   117   60   61 1    
   118   60   62 1    
   119   60  126 1    
   120   61  127 1    
   121   61  128 1    
   122   61  129 1    
   123   62   63 2    
   124   62   64 am   BACKBONE|DICT|INTERRES
   125   64   65 1    
   126   64  130 1    
   127   65   66 1    
   128   65   69 1    
   129   65  131 1    
   130   66   67 am   BACKBONE|DICT|INTERRES
   131   66   68 2    
   132   67  132 1    
   133   67  133 1    
   134   69   70 1    
   135   69  134 1    
   136   69  135 1    
   137   70   71 1    
   138   71  136 1    
   139   71  137 1    
@<TRIPOS>SUBSTRUCTURE
     1 UNK         1 GROUP             0       ****    0 ROOT    
