@<TRIPOS>MOLECULE
3R137
137   139    1
SMALL
USER_CHARGES


@<TRIPOS>ATOM
      1 CA         28.5006    1.0595    1.5495 C.3       0 UNK        -0.2020 
      2 C          28.7320   -0.4082    1.9011 C.2       0 UNK         0.4855 
      3 O          28.9327   -0.7198    3.0732 O.2       0 UNK        -0.5197 
      4 N          28.7232   -1.3456    0.9414 N.am      1 UNK        -0.4892 
      5 CA         28.4642   -1.1617   -0.4954 C.3       1 UNK         0.0835 
      6 C6         28.8413   -2.4284   -1.3019 C.3       12 UNK        -0.0855 
      7 S7         30.6460   -2.6835   -1.3038 S.3       12 UNK        -0.2931 
      8 C8         30.7943   -4.2572   -2.2054 C.3       12 UNK         0.0378 
      9 C9         30.4900   -4.1137   -3.6914 C.ar      12 UNK        -0.0802 
     10 C10        31.3486   -3.3827   -4.5183 C.ar      12 UNK        -0.0944 
     11 C11        31.1092   -3.2816   -5.8969 C.ar      12 UNK        -0.0787 
     12 C12        29.9999   -3.9429   -6.4366 C.ar      12 UNK        -0.0862 
     13 C13        29.1381   -4.6852   -5.6232 C.ar      12 UNK        -0.0733 
     14 C14        29.3807   -4.7542   -4.2487 C.ar      12 UNK        -0.0832 
     15 C15        27.9756   -5.4617   -6.2254 C.3       12 UNK         0.0240 
     16 S16        26.4828   -4.4390   -6.4114 S.3       12 UNK        -0.2522 
     17 C17        26.6276   -3.8554   -8.1374 C.3       12 UNK        -0.0967 
     18 CA         26.4596   -2.3269   -8.3052 C.3       5 UNK         0.0660 
     19 N          25.2123   -1.8314   -7.7223 N.am      5 UNK        -0.4015 
     20 C          24.7416   -0.5847   -7.8568 C.2       4 UNK         0.4946 
     21 O          25.2769    0.2725   -8.5622 O.2       4 UNK        -0.5353 
     22 CA         23.4972   -0.2130   -7.0307 C.3       4 UNK         0.0277 
     23 CB         22.2356   -0.2928   -7.9046 C.3       4 UNK        -0.1981 
     24 N          23.3025   -1.0181   -5.8149 N.am      4 UNK        -0.4209 
     25 C          24.1667   -1.0941   -4.7923 C.2       3 UNK         0.4942 
     26 O          25.2749   -0.5538   -4.7891 O.2       3 UNK        -0.5208 
     27 CA         23.7404   -1.9482   -3.5945 C.3       3 UNK         0.0250 
     28 CB         24.1940   -3.4086   -3.7677 C.3       3 UNK        -0.1990 
     29 N          24.3310   -1.3827   -2.3860 N.am      3 UNK        -0.4232 
     30 C          23.8819   -1.5548   -1.1388 C.2       2 UNK         0.4993 
     31 O          22.9165   -2.2685   -0.8584 O.2       2 UNK        -0.5286 
     32 CA         24.6407   -0.8098   -0.0203 C.3       2 UNK         0.0209 
     33 CB         24.0128   -1.0249    1.3704 C.3       2 UNK        -0.1931 
     34 N          26.0590   -1.1767    0.0455 N.am      2 UNK        -0.4546 
     35 C          27.0113   -0.7364   -0.7881 C.2       1 UNK         0.5154 
     36 O          26.7815    0.0126   -1.7365 O.2       1 UNK        -0.5181 
     37 C          27.7046   -1.5495   -7.8316 C.2       5 UNK         0.5014 
     38 O          28.6411   -1.4046   -8.6173 O.2       5 UNK        -0.5248 
     39 N          27.6872   -1.0200   -6.5974 N.am      6 UNK        -0.4434 
     40 CA         28.7644   -0.1859   -6.0633 C.3       6 UNK         0.0363 
     41 CB         28.5965   -0.0042   -4.5517 C.3       6 UNK        -0.1936 
     42 C          28.8659    1.1758   -6.7620 C.2       6 UNK         0.5081 
     43 O          29.9713    1.7018   -6.8836 O.2       6 UNK        -0.5248 
     44 N          27.7325    1.7118   -7.2320 N.am      7 UNK        -0.4718 
     45 CA         27.6923    2.9143   -8.0609 C.3       7 UNK         0.0273 
     46 CB         26.3004    3.5623   -7.9813 C.3       7 UNK        -0.1935 
     47 C          28.0746    2.5907   -9.5121 C.2       7 UNK         0.5018 
     48 O          28.8935    3.3047  -10.0902 O.2       7 UNK        -0.5186 
     49 N          27.4971    1.5115  -10.0628 N.am      8 UNK        -0.4240 
     50 CA         27.6951    1.0750  -11.4486 C.3       8 UNK         0.0235 
     51 CB         26.7250   -0.0697  -11.7796 C.3       8 UNK        -0.2000 
     52 C          29.1433    0.6703  -11.7735 C.2       8 UNK         0.4941 
     53 O          29.6657    1.0961  -12.8042 O.2       8 UNK        -0.5273 
     54 N          29.7697   -0.1243  -10.8936 N.am      9 UNK        -0.4262 
     55 CA         31.1610   -0.5716  -11.0299 C.3       9 UNK         0.0264 
     56 CB         31.2787   -2.0237  -10.5365 C.3       9 UNK        -0.1955 
     57 C          32.1696    0.3602  -10.3282 C.2       9 UNK         0.5031 
     58 O          33.3666    0.0717  -10.3634 O.2       9 UNK        -0.5390 
     59 N          31.6842    1.4621   -9.7354 N.am      10 UNK        -0.4204 
     60 CA         32.4434    2.5505   -9.1085 C.3       10 UNK         0.0237 
     61 CB         33.2362    3.3401  -10.1726 C.3       10 UNK        -0.1985 
     62 C          33.3115    2.1094   -7.9120 C.2       10 UNK         0.4970 
     63 O          34.4542    2.5545   -7.7831 O.2       10 UNK        -0.4914 
     64 N          32.7370    1.2765   -7.0369 N.am      11 UNK        -0.4285 
     65 CA         33.2712    1.0031   -5.6933 C.3       11 UNK         0.1007 
     66 C          32.8892    2.1110   -4.6714 C.2       11 UNK         0.5703 
     67 N          31.7982    2.8432   -4.8705 N.am      11 UNK        -0.7361 
     68 O          33.5999    2.3138   -3.6901 O.2       11 UNK        -0.4986 
     69 C69        32.8479   -0.3873   -5.1568 C.3       12 UNK        -0.0947 
     70 S70        33.5257   -1.7634   -6.1426 S.3       12 UNK        -0.2240 
     71 C71        32.0113   -2.4929   -6.8539 C.3       12 UNK         0.0194 
     72 H72        29.0694    1.3615    0.6714 H         1 UNK         0.0906 
     73 H73        27.4431    1.2503    1.3693 H         1 UNK         0.0906 
     74 H74        28.8156    1.6991    2.3739 H         1 UNK         0.0906 
     75 H75        28.9231   -2.2978    1.2135 H         1 UNK         0.3140 
     76 H76        29.0970   -0.3472   -0.8538 H         1 UNK         0.1085 
     77 H77        28.3509   -3.3123   -0.8895 H         1 UNK         0.0836 
     78 H78        28.5097   -2.3573   -2.3378 H         1 UNK         0.0836 
     79 H79        30.1462   -5.0016   -1.7402 H         1 UNK         0.0731 
     80 H80        31.8134   -4.6294   -2.0905 H         1 UNK         0.0731 
     81 H81        32.2045   -2.9023   -4.0683 H         1 UNK         0.1312 
     82 H82        29.8127   -3.8867   -7.5002 H         1 UNK         0.1406 
     83 H83        28.7199   -5.3325   -3.6171 H         1 UNK         0.1631 
     84 H84        27.7277   -6.3082   -5.5832 H         1 UNK         0.0717 
     85 H85        28.2643   -5.8974   -7.1829 H         1 UNK         0.0717 
     86 H86        27.5734   -4.1809   -8.5744 H         1 UNK         0.0934 
     87 H87        25.8569   -4.3659   -8.7171 H         1 UNK         0.0934 
     88 H88        26.3813   -2.1406   -9.3766 H         1 UNK         0.0739 
     89 H89        24.7245   -2.4700   -7.1118 H         1 UNK         0.3093 
     90 H90        23.6278    0.8243   -6.7149 H         1 UNK         0.0818 
     91 H91        21.3585    0.0757   -7.3722 H         1 UNK         0.0819 
     92 H92        22.3443    0.3163   -8.8034 H         1 UNK         0.0819 
     93 H93        22.0303   -1.3145   -8.2268 H         1 UNK         0.0819 
     94 H94        22.4224   -1.5090   -5.7401 H         1 UNK         0.3041 
     95 H95        22.6521   -1.9105   -3.5101 H         1 UNK         0.0784 
     96 H96        23.8060   -3.8374   -4.6923 H         1 UNK         0.0793 
     97 H97        25.2815   -3.4867   -3.7983 H         1 UNK         0.0793 
     98 H98        23.8395   -4.0349   -2.9490 H         1 UNK         0.0793 
     99 H99        25.1360   -0.7783   -2.5428 H         1 UNK         0.3024 
    100 H100       24.5682    0.2559   -0.2506 H         1 UNK         0.1171 
    101 H101       24.5236   -0.4354    2.1320 H         1 UNK         0.0786 
    102 H102       22.9652   -0.7207    1.3784 H         1 UNK         0.0786 
    103 H103       24.0513   -2.0719    1.6738 H         1 UNK         0.0786 
    104 H104       26.3320   -1.7999    0.7922 H         1 UNK         0.2977 
    105 H105       26.8664   -1.1352   -6.0113 H         1 UNK         0.3127 
    106 H106       29.7022   -0.7123   -6.2324 H         1 UNK         0.0770 
    107 H107       27.6848    0.5417   -4.3068 H         1 UNK         0.0814 
    108 H108       28.5564   -0.9684   -4.0512 H         1 UNK         0.0814 
    109 H109       29.4346    0.5498   -4.1268 H         1 UNK         0.0814 
    110 H110       26.8690    1.1957   -7.1276 H         1 UNK         0.2983 
    111 H111       28.4189    3.6337   -7.6754 H         1 UNK         0.0947 
    112 H112       26.0462    3.8274   -6.9550 H         1 UNK         0.0806 
    113 H113       25.5176    2.9049   -8.3602 H         1 UNK         0.0806 
    114 H114       26.2662    4.4799   -8.5702 H         1 UNK         0.0806 
    115 H115       26.8089    1.0018   -9.5141 H         1 UNK         0.3000 
    116 H116       27.4412    1.9231  -12.0883 H         1 UNK         0.0850 
    117 H117       26.7686   -0.3193  -12.8405 H         1 UNK         0.0810 
    118 H118       25.6935    0.2000  -11.5511 H         1 UNK         0.0810 
    119 H119       26.9680   -0.9753  -11.2258 H         1 UNK         0.0810 
    120 H120       29.2678   -0.4628  -10.0728 H         1 UNK         0.3040 
    121 H121       31.4368   -0.5726  -12.0866 H         1 UNK         0.0766 
    122 H122       30.9745   -2.1230   -9.4979 H         1 UNK         0.0812 
    123 H123       32.3034   -2.3891  -10.6152 H         1 UNK         0.0812 
    124 H124       30.6520   -2.6909  -11.1282 H         1 UNK         0.0812 
    125 H125       30.6832    1.6006   -9.7672 H         1 UNK         0.3205 
    126 H126       31.6961    3.2295   -8.6944 H         1 UNK         0.0754 
    127 H127       33.6972    4.2286   -9.7393 H         1 UNK         0.0769 
    128 H128       32.5864    3.6763  -10.9808 H         1 UNK         0.0769 
    129 H129       34.0343    2.7399  -10.6108 H         1 UNK         0.0769 
    130 H130       31.7555    1.0608   -7.1739 H         1 UNK         0.2981 
    131 H131       34.3615    1.0048   -5.7501 H         1 UNK         0.0541 
    132 H132       31.1801    2.6383   -5.6480 H         1 UNK         0.3459 
    133 H133       31.5596    3.5654   -4.2103 H         1 UNK         0.3459 
    134 H134       31.7614   -0.4625   -5.1030 H         1 UNK         0.0612 
    135 H135       33.2081   -0.5264   -4.1356 H         1 UNK         0.0612 
    136 H136       32.3197   -3.1586   -7.6610 H         1 UNK         0.0624 
    137 H137       31.4349   -1.6930   -7.3172 H         1 UNK         0.0624 
@<TRIPOS>BOND
     1    1    2 1    
     2    1   72 1    
     3    1   73 1    
     4    1   74 1    
     5    2    3 2    
     6    2    4 am   BACKBONE|DICT|INTERRES
     7    4    5 1    
     8    4   75 1    
     9    5    6 1    
    10    5   35 1    
    11    5   76 1    
    12    6    7 1    
    13    6   77 1    
    14    6   78 1    
    15    7    8 1    
    16    8    9 1    
    17    8   79 1    
    18    8   80 1    
    19    9   10 ar   
    20    9   14 ar   
    21   10   11 ar   
    22   10   81 1    
    23   11   12 ar   
    24   11   71 1    
    25   12   13 ar   
    26   12   82 1    
    27   13   14 ar   
    28   13   15 1    
    29   14   83 1    
    30   15   16 1    
    31   15   84 1    
    32   15   85 1    
    33   16   17 1    
    34   17   18 1    
    35   17   86 1    
    36   17   87 1    
    37   18   19 1    
    38   18   37 1    
    39   18   88 1    
    40   19   20 am   BACKBONE|DICT|INTERRES
    41   19   89 1    
    42   20   21 2    
    43   20   22 1    
    44   22   23 1    
    45   22   24 1    
    46   22   90 1    
    47   23   91 1    
    48   23   92 1    
    49   23   93 1    
    50   24   25 am   BACKBONE|DICT|INTERRES
    51   24   94 1    
    52   25   26 2    
    53   25   27 1    
    54   27   28 1    
    55   27   29 1    
    56   27   95 1    
    57   28   96 1    
    58   28   97 1    
    59   28   98 1    
    60   29   30 am   BACKBONE|DICT|INTERRES
    61   29   99 1    
    62   30   31 2    
    63   30   32 1    
    64   32   33 1    
    65   32   34 1    
    66   32  100 1    
    67   33  101 1    
    68   33  102 1    
    69   33  103 1    
    70   34   35 am   BACKBONE|DICT|INTERRES
    71   34  104 1    
    72   35   36 2    
    73   37   38 2    
    74   37   39 am   BACKBONE|DICT|INTERRES
    75   39   40 1    
    76   39  105 1    
    77   40   41 1    
    78   40   42 1    
    79   40  106 1    
    80   41  107 1    
    81   41  108 1    
    82   41  109 1    
    83   42   43 2    
    84   42   44 am   BACKBONE|DICT|INTERRES
    85   44   45 1    
    86   44  110 1    
    87   45   46 1    
    88   45   47 1    
    89   45  111 1    
    90   46  112 1    
    91   46  113 1    
    92   46  114 1    
    93   47   48 2    
    94   47   49 am   BACKBONE|DICT|INTERRES
    95   49   50 1    
    96   49  115 1    
    97   50   51 1    
    98   50   52 1    
    99   50  116 1    
   100   51  117 1    
   101   51  118 1    
   102   51  119 1    
   103   52   53 2    
   104   52   54 am   BACKBONE|DICT|INTERRES
   105   54   55 1    
   106   54  120 1    
   107   55   56 1    
   108   55   57 1    
   109   55  121 1    
   110   56  122 1    
   111   56  123 1    
   112   56  124 1    
   113   57   58 2    
   114   57   59 am   BACKBONE|DICT|INTERRES
   115   59   60 1    
   116   59  125 1    
   117   60   61 1    
   118   60   62 1    
   119   60  126 1    
   120   61  127 1    
   121   61  128 1    
   122   61  129 1    
   123   62   63 2    
   124   62   64 am   BACKBONE|DICT|INTERRES
   125   64   65 1    
   126   64  130 1    
   127   65   66 1    
   128   65   69 1    
   129   65  131 1    
   130   66   67 am   BACKBONE|DICT|INTERRES
   131   66   68 2    
   132   67  132 1    
   133   67  133 1    
   134   69   70 1    
   135   69  134 1    
   136   69  135 1    
   137   70   71 1    
   138   71  136 1    
   139   71  137 1    
@<TRIPOS>SUBSTRUCTURE
     1 UNK         1 GROUP             0       ****    0 ROOT    
