@<TRIPOS>MOLECULE
3R137
137   139    1
SMALL
USER_CHARGES


@<TRIPOS>ATOM
      1 CA         26.0636   -6.7145   -5.9248 C.3       0 UNK        -0.2020 
      2 C          26.1953   -6.4194   -4.4382 C.2       0 UNK         0.4855 
      3 O          25.7460   -7.2149   -3.6126 O.2       0 UNK        -0.5197 
      4 N          26.8066   -5.2827   -4.0922 N.am      1 UNK        -0.4892 
      5 CA         27.0091   -4.8094   -2.7258 C.3       1 UNK         0.0835 
      6 C6         28.3719   -5.2925   -2.1706 C.3       12 UNK        -0.0855 
      7 S7         28.7169   -4.7646   -0.4545 S.3       12 UNK        -0.2931 
      8 C8         30.5231   -4.5087   -0.4887 C.3       12 UNK         0.0378 
      9 C9         30.9290   -3.3647   -1.4086 C.ar      12 UNK        -0.0802 
     10 C10        31.4906   -3.6341   -2.6604 C.ar      12 UNK        -0.0944 
     11 C11        31.8315   -2.5915   -3.5249 C.ar      12 UNK        -0.0787 
     12 C12        31.6380   -1.2706   -3.1152 C.ar      12 UNK        -0.0862 
     13 C13        31.0886   -0.9824   -1.8607 C.ar      12 UNK        -0.0733 
     14 C14        30.7377   -2.0376   -1.0118 C.ar      12 UNK        -0.0832 
     15 C15        30.8593    0.4589   -1.4084 C.3       12 UNK         0.0240 
     16 S16        30.3098    1.5884   -2.7363 S.3       12 UNK        -0.2522 
     17 C17        28.7721    0.7840   -3.2935 C.3       12 UNK        -0.0967 
     18 CA         28.5436    0.9402   -4.8196 C.3       5 UNK         0.0660 
     19 N          27.7839   -0.1829   -5.3743 N.am      5 UNK        -0.4015 
     20 C          27.5135   -0.3744   -6.6737 C.2       4 UNK         0.4946 
     21 O          27.9671    0.3142   -7.5873 O.2       4 UNK        -0.5353 
     22 CA         26.5304   -1.5037   -7.0133 C.3       4 UNK         0.0277 
     23 CB         27.2756   -2.8339   -7.2077 C.3       4 UNK        -0.1981 
     24 N          25.4841   -1.6460   -5.9963 N.am      4 UNK        -0.4209 
     25 C          24.5043   -0.7507   -5.7967 C.2       3 UNK         0.4942 
     26 O          24.3503    0.2596   -6.4822 O.2       3 UNK        -0.5208 
     27 CA         23.5715   -0.9984   -4.5985 C.3       3 UNK         0.0250 
     28 CB         22.5087   -2.0534   -4.9445 C.3       3 UNK        -0.1990 
     29 N          24.2971   -1.4044   -3.3914 N.am      3 UNK        -0.4232 
     30 C          25.1850   -0.6334   -2.7465 C.2       2 UNK         0.4993 
     31 O          25.4375    0.5269   -3.0664 O.2       2 UNK        -0.5286 
     32 CA         25.9636   -1.2722   -1.5825 C.3       2 UNK         0.0209 
     33 CB         25.2396   -1.0207   -0.2510 C.3       2 UNK        -0.1931 
     34 N          26.2171   -2.7095   -1.7376 N.am      2 UNK        -0.4546 
     35 C          26.8636   -3.2783   -2.7654 C.2       1 UNK         0.5154 
     36 O          27.2973   -2.6476   -3.7355 O.2       1 UNK        -0.5181 
     37 C          27.8766    2.2909   -5.1536 C.2       5 UNK         0.5014 
     38 O          28.5232    3.1621   -5.7360 O.2       5 UNK        -0.5248 
     39 N          26.5849    2.4208   -4.8129 N.am      6 UNK        -0.4434 
     40 CA         25.7583    3.6059   -5.0585 C.3       6 UNK         0.0363 
     41 CB         24.3905    3.4236   -4.3817 C.3       6 UNK        -0.1936 
     42 C          25.5823    3.9314   -6.5508 C.2       6 UNK         0.5081 
     43 O          25.6104    5.1053   -6.9208 O.2       6 UNK        -0.5248 
     44 N          25.4294    2.8925   -7.3827 N.am      7 UNK        -0.4718 
     45 CA         25.3537    3.0043   -8.8421 C.3       7 UNK         0.0273 
     46 CB         24.7711    1.6989   -9.4090 C.3       7 UNK        -0.1935 
     47 C          26.7057    3.3120   -9.5141 C.2       7 UNK         0.5018 
     48 O          26.7086    3.6812  -10.6891 O.2       7 UNK        -0.5186 
     49 N          27.8165    3.1195   -8.7836 N.am      8 UNK        -0.4240 
     50 CA         29.2098    3.1473   -9.2485 C.3       8 UNK         0.0235 
     51 CB         29.6275    4.5711   -9.6729 C.3       8 UNK        -0.2000 
     52 C          29.4826    2.0832  -10.3319 C.2       8 UNK         0.4941 
     53 O          30.2311    2.3342  -11.2783 O.2       8 UNK        -0.5273 
     54 N          28.8503    0.9134  -10.1737 N.am      9 UNK        -0.4262 
     55 CA         28.9122   -0.2167  -11.1003 C.3       9 UNK         0.0264 
     56 CB         27.5701   -0.9658  -11.0520 C.3       9 UNK        -0.1955 
     57 C          30.0735   -1.1743  -10.7887 C.2       9 UNK         0.5031 
     58 O          30.4261   -1.9842  -11.6476 O.2       9 UNK        -0.5390 
     59 N          30.6423   -1.0788   -9.5821 N.am      10 UNK        -0.4204 
     60 CA         31.7683   -1.8741   -9.1076 C.3       10 UNK         0.0237 
     61 CB         31.2437   -3.1602   -8.4421 C.3       10 UNK        -0.1985 
     62 C          32.5870   -1.0334   -8.1228 C.2       10 UNK         0.4970 
     63 O          32.0569   -0.0746   -7.5553 O.2       10 UNK        -0.4914 
     64 N          33.8497   -1.4336   -7.9241 N.am      11 UNK        -0.4285 
     65 CA         34.8181   -0.8381   -6.9821 C.3       11 UNK         0.1007 
     66 C          35.2518    0.6227   -7.3199 C.2       11 UNK         0.5703 
     67 N          35.0452    1.1078   -8.5387 N.am      11 UNK        -0.7361 
     68 O          35.8185    1.3188   -6.4804 O.2       11 UNK        -0.4986 
     69 C69        34.4030   -1.0146   -5.4912 C.3       12 UNK        -0.0947 
     70 S70        34.1697   -2.7652   -5.0223 S.3       12 UNK        -0.2240 
     71 C71        32.3577   -2.8965   -4.9184 C.3       12 UNK         0.0194 
     72 H72        26.6302   -6.0082   -6.5331 H         1 UNK         0.0906 
     73 H73        26.4330   -7.7178   -6.1423 H         1 UNK         0.0906 
     74 H74        25.0163   -6.6634   -6.2264 H         1 UNK         0.0906 
     75 H75        27.1382   -4.6362   -4.7962 H         1 UNK         0.3140 
     76 H76        26.2136   -5.2044   -2.0896 H         1 UNK         0.1085 
     77 H77        28.4070   -6.3829   -2.1900 H         1 UNK         0.0836 
     78 H78        29.1695   -4.9627   -2.8347 H         1 UNK         0.0836 
     79 H79        31.0114   -5.4379   -0.7873 H         1 UNK         0.0731 
     80 H80        30.8684   -4.2968    0.5242 H         1 UNK         0.0731 
     81 H81        31.6379   -4.6586   -2.9742 H         1 UNK         0.1312 
     82 H82        31.8945   -0.4626   -3.7836 H         1 UNK         0.1406 
     83 H83        30.3031   -1.8307   -0.0430 H         1 UNK         0.1631 
     84 H84        31.7892    0.8426   -0.9872 H         1 UNK         0.0717 
     85 H85        30.1192    0.4923   -0.6072 H         1 UNK         0.0717 
     86 H86        28.8255   -0.2759   -3.0431 H         1 UNK         0.0934 
     87 H87        27.9430    1.1802   -2.7057 H         1 UNK         0.0934 
     88 H88        29.5137    0.9179   -5.3221 H         1 UNK         0.0739 
     89 H89        27.4192   -0.8587   -4.7117 H         1 UNK         0.3093 
     90 H90        26.0448   -1.2472   -7.9570 H         1 UNK         0.0818 
     91 H91        26.5898   -3.6368   -7.4773 H         1 UNK         0.0819 
     92 H92        28.0074   -2.7522   -8.0126 H         1 UNK         0.0819 
     93 H93        27.8184   -3.1337   -6.3113 H         1 UNK         0.0819 
     94 H94        25.5795   -2.4117   -5.3452 H         1 UNK         0.3041 
     95 H95        23.0606   -0.0580   -4.3799 H         1 UNK         0.0784 
     96 H96        21.9484   -1.7635   -5.8347 H         1 UNK         0.0793 
     97 H97        22.9523   -3.0301   -5.1424 H         1 UNK         0.0793 
     98 H98        21.7878   -2.1698   -4.1350 H         1 UNK         0.0793 
     99 H99        24.1405   -2.3419   -3.0516 H         1 UNK         0.3024 
    100 H100       26.9355   -0.7784   -1.5354 H         1 UNK         0.1171 
    101 H101       25.0602    0.0449   -0.0996 H         1 UNK         0.0786 
    102 H102       25.8318   -1.3697    0.5952 H         1 UNK         0.0786 
    103 H103       24.2718   -1.5225   -0.2150 H         1 UNK         0.0786 
    104 H104       25.9094   -3.3005   -0.9781 H         1 UNK         0.2977 
    105 H105       26.1379    1.6619   -4.2986 H         1 UNK         0.3127 
    106 H106       26.2596    4.4570   -4.5930 H         1 UNK         0.0770 
    107 H107       23.8563    2.5603   -4.7809 H         1 UNK         0.0814 
    108 H108       23.7584    4.2996   -4.5331 H         1 UNK         0.0814 
    109 H109       24.4964    3.2814   -3.3060 H         1 UNK         0.0814 
    110 H110       25.3367    1.9597   -6.9905 H         1 UNK         0.2983 
    111 H111       24.6731    3.8215   -9.0911 H         1 UNK         0.0947 
    112 H112       24.6650    1.7534  -10.4933 H         1 UNK         0.0806 
    113 H113       23.7831    1.4930   -8.9970 H         1 UNK         0.0806 
    114 H114       25.4113    0.8447   -9.1861 H         1 UNK         0.0806 
    115 H115       27.6950    2.8151   -7.8247 H         1 UNK         0.3000 
    116 H116       29.8193    2.8659   -8.3881 H         1 UNK         0.0850 
    117 H117       30.6959    4.6158   -9.8877 H         1 UNK         0.0810 
    118 H118       29.4256    5.2942   -8.8827 H         1 UNK         0.0810 
    119 H119       29.1024    4.8981  -10.5707 H         1 UNK         0.0810 
    120 H120       28.3248    0.7700   -9.3115 H         1 UNK         0.3040 
    121 H121       29.0569    0.1584  -12.1158 H         1 UNK         0.0766 
    122 H122       26.7402   -0.3092  -11.3142 H         1 UNK         0.0812 
    123 H123       27.3732   -1.3769  -10.0620 H         1 UNK         0.0812 
    124 H124       27.5608   -1.7972  -11.7582 H         1 UNK         0.0812 
    125 H125       30.3383   -0.3532   -8.9435 H         1 UNK         0.3205 
    126 H126       32.4129   -2.1340   -9.9502 H         1 UNK         0.0754 
    127 H127       32.0620   -3.7673   -8.0529 H         1 UNK         0.0769 
    128 H128       30.6947   -3.7772   -9.1538 H         1 UNK         0.0769 
    129 H129       30.5743   -2.9380   -7.6102 H         1 UNK         0.0769 
    130 H130       34.1931   -2.2283   -8.4437 H         1 UNK         0.2981 
    131 H131       35.7323   -1.4161   -7.1205 H         1 UNK         0.0541 
    132 H132       34.5956    0.5475   -9.2440 H         1 UNK         0.3459 
    133 H133       35.3402    2.0476   -8.7509 H         1 UNK         0.3459 
    134 H134       35.1744   -0.6164   -4.8302 H         1 UNK         0.0612 
    135 H135       33.5037   -0.4382   -5.2802 H         1 UNK         0.0612 
    136 H136       31.8869   -2.2269   -5.6366 H         1 UNK         0.0624 
    137 H137       32.0681   -3.9055   -5.2153 H         1 UNK         0.0624 
@<TRIPOS>BOND
     1    1    2 1    
     2    1   72 1    
     3    1   73 1    
     4    1   74 1    
     5    2    3 2    
     6    2    4 am   BACKBONE|DICT|INTERRES
     7    4    5 1    
     8    4   75 1    
     9    5    6 1    
    10    5   35 1    
    11    5   76 1    
    12    6    7 1    
    13    6   77 1    
    14    6   78 1    
    15    7    8 1    
    16    8    9 1    
    17    8   79 1    
    18    8   80 1    
    19    9   10 ar   
    20    9   14 ar   
    21   10   11 ar   
    22   10   81 1    
    23   11   12 ar   
    24   11   71 1    
    25   12   13 ar   
    26   12   82 1    
    27   13   14 ar   
    28   13   15 1    
    29   14   83 1    
    30   15   16 1    
    31   15   84 1    
    32   15   85 1    
    33   16   17 1    
    34   17   18 1    
    35   17   86 1    
    36   17   87 1    
    37   18   19 1    
    38   18   37 1    
    39   18   88 1    
    40   19   20 am   BACKBONE|DICT|INTERRES
    41   19   89 1    
    42   20   21 2    
    43   20   22 1    
    44   22   23 1    
    45   22   24 1    
    46   22   90 1    
    47   23   91 1    
    48   23   92 1    
    49   23   93 1    
    50   24   25 am   BACKBONE|DICT|INTERRES
    51   24   94 1    
    52   25   26 2    
    53   25   27 1    
    54   27   28 1    
    55   27   29 1    
    56   27   95 1    
    57   28   96 1    
    58   28   97 1    
    59   28   98 1    
    60   29   30 am   BACKBONE|DICT|INTERRES
    61   29   99 1    
    62   30   31 2    
    63   30   32 1    
    64   32   33 1    
    65   32   34 1    
    66   32  100 1    
    67   33  101 1    
    68   33  102 1    
    69   33  103 1    
    70   34   35 am   BACKBONE|DICT|INTERRES
    71   34  104 1    
    72   35   36 2    
    73   37   38 2    
    74   37   39 am   BACKBONE|DICT|INTERRES
    75   39   40 1    
    76   39  105 1    
    77   40   41 1    
    78   40   42 1    
    79   40  106 1    
    80   41  107 1    
    81   41  108 1    
    82   41  109 1    
    83   42   43 2    
    84   42   44 am   BACKBONE|DICT|INTERRES
    85   44   45 1    
    86   44  110 1    
    87   45   46 1    
    88   45   47 1    
    89   45  111 1    
    90   46  112 1    
    91   46  113 1    
    92   46  114 1    
    93   47   48 2    
    94   47   49 am   BACKBONE|DICT|INTERRES
    95   49   50 1    
    96   49  115 1    
    97   50   51 1    
    98   50   52 1    
    99   50  116 1    
   100   51  117 1    
   101   51  118 1    
   102   51  119 1    
   103   52   53 2    
   104   52   54 am   BACKBONE|DICT|INTERRES
   105   54   55 1    
   106   54  120 1    
   107   55   56 1    
   108   55   57 1    
   109   55  121 1    
   110   56  122 1    
   111   56  123 1    
   112   56  124 1    
   113   57   58 2    
   114   57   59 am   BACKBONE|DICT|INTERRES
   115   59   60 1    
   116   59  125 1    
   117   60   61 1    
   118   60   62 1    
   119   60  126 1    
   120   61  127 1    
   121   61  128 1    
   122   61  129 1    
   123   62   63 2    
   124   62   64 am   BACKBONE|DICT|INTERRES
   125   64   65 1    
   126   64  130 1    
   127   65   66 1    
   128   65   69 1    
   129   65  131 1    
   130   66   67 am   BACKBONE|DICT|INTERRES
   131   66   68 2    
   132   67  132 1    
   133   67  133 1    
   134   69   70 1    
   135   69  134 1    
   136   69  135 1    
   137   70   71 1    
   138   71  136 1    
   139   71  137 1    
@<TRIPOS>SUBSTRUCTURE
     1 UNK         1 GROUP             0       ****    0 ROOT    
