@<TRIPOS>MOLECULE
3R137
137   139    1
SMALL
USER_CHARGES


@<TRIPOS>ATOM
      1 CA         27.0534   -3.3339   -0.8198 C.3       0 UNK        -0.2020 
      2 C          26.2572   -2.8928   -2.0375 C.2       0 UNK         0.4855 
      3 O          25.4363   -1.9827   -1.9370 O.2       0 UNK        -0.5197 
      4 N          26.4696   -3.5472   -3.1872 N.am      1 UNK        -0.4892 
      5 CA         25.8908   -3.1932   -4.4957 C.3       1 UNK         0.0835 
      6 C6         26.6557   -3.8603   -5.6644 C.3       12 UNK        -0.0855 
      7 S7         28.3308   -3.1591   -5.8039 S.3       12 UNK        -0.2931 
      8 C8         29.3574   -4.4643   -5.0624 C.3       12 UNK         0.0378 
      9 C9         30.6092   -3.8476   -4.4653 C.ar      12 UNK        -0.0802 
     10 C10        31.7992   -3.8022   -5.1969 C.ar      12 UNK        -0.0944 
     11 C11        32.9248   -3.1477   -4.6815 C.ar      12 UNK        -0.0787 
     12 C12        32.8523   -2.5634   -3.4126 C.ar      12 UNK        -0.0862 
     13 C13        31.6734   -2.6206   -2.6629 C.ar      12 UNK        -0.0733 
     14 C14        30.5585   -3.2748   -3.1920 C.ar      12 UNK        -0.0832 
     15 C15        31.6065   -1.9576   -1.2911 C.3       12 UNK         0.0240 
     16 S16        30.2238   -0.7762   -1.1231 S.3       12 UNK        -0.2522 
     17 C17        30.4628    0.3194   -2.5648 C.3       12 UNK        -0.0967 
     18 CA         29.2478    0.2684   -3.5255 C.3       5 UNK         0.0660 
     19 N          28.0309    0.7689   -2.8627 N.am      5 UNK        -0.4015 
     20 C          26.7890    0.7632   -3.3631 C.2       4 UNK         0.4946 
     21 O          26.5067    0.3913   -4.5048 O.2       4 UNK        -0.5353 
     22 CA         25.6880    1.3342   -2.4645 C.3       4 UNK         0.0277 
     23 CB         25.6505    2.8715   -2.5516 C.3       4 UNK        -0.1981 
     24 N          24.4149    0.7749   -2.9022 N.am      4 UNK        -0.4209 
     25 C          23.3092    0.6614   -2.1585 C.2       3 UNK         0.4942 
     26 O          23.1965    1.0971   -1.0120 O.2       3 UNK        -0.5208 
     27 CA         22.1440   -0.1015   -2.7953 C.3       3 UNK         0.0250 
     28 CB         21.7720    0.4712   -4.1815 C.3       3 UNK        -0.1990 
     29 N          22.5058   -1.5153   -2.8788 N.am      3 UNK        -0.4232 
     30 C          21.6749   -2.5246   -3.1804 C.2       2 UNK         0.4993 
     31 O          20.4664   -2.3738   -3.3699 O.2       2 UNK        -0.5286 
     32 CA         22.2872   -3.9421   -3.2830 C.3       2 UNK         0.0209 
     33 CB         21.5431   -4.8405   -4.2947 C.3       2 UNK        -0.1931 
     34 N          23.7329   -3.9330   -3.5499 N.am      2 UNK        -0.4546 
     35 C          24.3631   -3.3968   -4.6075 C.2       1 UNK         0.5154 
     36 O          23.7821   -3.0037   -5.6196 O.2       1 UNK        -0.5181 
     37 C          29.5900    0.9685   -4.8615 C.2       5 UNK         0.5014 
     38 O          30.4392    0.4742   -5.6045 O.2       5 UNK        -0.5248 
     39 N          28.9442    2.1031   -5.1589 N.am      6 UNK        -0.4434 
     40 CA         29.0444    2.7936   -6.4420 C.3       6 UNK         0.0363 
     41 CB         28.5077    4.2252   -6.2895 C.3       6 UNK        -0.1936 
     42 C          28.3164    2.0672   -7.5898 C.2       6 UNK         0.5081 
     43 O          28.6389    2.3338   -8.7490 O.2       6 UNK        -0.5248 
     44 N          27.3536    1.1876   -7.2635 N.am      7 UNK        -0.4718 
     45 CA         26.4598    0.5131   -8.2126 C.3       7 UNK         0.0273 
     46 CB         25.4440   -0.3464   -7.4445 C.3       7 UNK        -0.1935 
     47 C          27.1751   -0.3296   -9.2800 C.2       7 UNK         0.5018 
     48 O          26.7607   -0.3049  -10.4396 O.2       7 UNK        -0.5186 
     49 N          28.2606   -1.0169   -8.9001 N.am      8 UNK        -0.4240 
     50 CA         29.1099   -1.8007   -9.8046 C.3       8 UNK         0.0235 
     51 CB         29.7715   -2.9485   -9.0187 C.3       8 UNK        -0.2000 
     52 C          30.1214   -0.9208  -10.5699 C.2       8 UNK         0.4941 
     53 O          31.3079   -1.2456  -10.6128 O.2       8 UNK        -0.5273 
     54 N          29.6271    0.1757  -11.1637 N.am      9 UNK        -0.4262 
     55 CA         30.3493    1.1698  -11.9658 C.3       9 UNK         0.0264 
     56 CB         30.7941    0.5561  -13.3111 C.3       9 UNK        -0.1955 
     57 C          31.5063    1.8387  -11.1973 C.2       9 UNK         0.5031 
     58 O          32.6491    1.8122  -11.6599 O.2       9 UNK        -0.5390 
     59 N          31.1772    2.4320  -10.0393 N.am      10 UNK        -0.4204 
     60 CA         32.0817    3.1549   -9.1337 C.3       10 UNK         0.0237 
     61 CB         32.6545    4.4204   -9.8100 C.3       10 UNK        -0.1985 
     62 C          33.1670    2.2518   -8.5119 C.2       10 UNK         0.4970 
     63 O          34.3273    2.6579   -8.4226 O.2       10 UNK        -0.4914 
     64 N          32.7680    1.0429   -8.0949 N.am      11 UNK        -0.4285 
     65 CA         33.6280    0.0550   -7.4258 C.3       11 UNK         0.1007 
     66 C          34.1347    0.5364   -6.0392 C.2       11 UNK         0.5703 
     67 N          33.2488    1.0075   -5.1707 N.am      11 UNK        -0.7361 
     68 O          35.3303    0.4972   -5.7591 O.2       11 UNK        -0.4986 
     69 C69        32.9108   -1.3141   -7.3290 C.3       12 UNK        -0.0947 
     70 S70        34.0336   -2.7502   -7.2635 S.3       12 UNK        -0.2240 
     71 C71        34.2294   -3.0518   -5.4712 C.3       12 UNK         0.0194 
     72 H72        27.7046   -4.1796   -1.0391 H         1 UNK         0.0906 
     73 H73        27.6726   -2.5115   -0.4628 H         1 UNK         0.0906 
     74 H74        26.3782   -3.6246   -0.0156 H         1 UNK         0.0906 
     75 H75        27.1230   -4.3158   -3.2015 H         1 UNK         0.3140 
     76 H76        26.0187   -2.1152   -4.6035 H         1 UNK         0.1085 
     77 H77        26.1573   -3.6756   -6.6182 H         1 UNK         0.0836 
     78 H78        26.6950   -4.9446   -5.5481 H         1 UNK         0.0836 
     79 H79        29.6109   -5.2035   -5.8239 H         1 UNK         0.0731 
     80 H80        28.8048   -4.9938   -4.2859 H         1 UNK         0.0731 
     81 H81        31.8367   -4.2450   -6.1826 H         1 UNK         0.1312 
     82 H82        33.7168   -2.0528   -3.0103 H         1 UNK         0.1406 
     83 H83        29.6374   -3.3005   -2.6270 H         1 UNK         0.1631 
     84 H84        32.5366   -1.4315   -1.0704 H         1 UNK         0.0717 
     85 H85        31.5030   -2.7312   -0.5292 H         1 UNK         0.0717 
     86 H86        30.6290    1.3369   -2.2060 H         1 UNK         0.0934 
     87 H87        31.3815    0.0358   -3.0811 H         1 UNK         0.0934 
     88 H88        29.0587   -0.7758   -3.7840 H         1 UNK         0.0739 
     89 H89        28.1644    1.0973   -1.9170 H         1 UNK         0.3093 
     90 H90        25.8798    1.0202   -1.4360 H         1 UNK         0.0818 
     91 H91        26.5969    3.3093   -2.2323 H         1 UNK         0.0819 
     92 H92        25.4574    3.2115   -3.5700 H         1 UNK         0.0819 
     93 H93        24.8733    3.2866   -1.9097 H         1 UNK         0.0819 
     94 H94        24.4541    0.3544   -3.8226 H         1 UNK         0.3041 
     95 H95        21.2811   -0.0027   -2.1333 H         1 UNK         0.0784 
     96 H96        21.6420    1.5534   -4.1365 H         1 UNK         0.0793 
     97 H97        22.5360    0.2610   -4.9308 H         1 UNK         0.0793 
     98 H98        20.8332    0.0534   -4.5446 H         1 UNK         0.0793 
     99 H99        23.4754   -1.7292   -2.6599 H         1 UNK         0.3024 
    100 H100       22.1620   -4.3878   -2.2948 H         1 UNK         0.1171 
    101 H101       21.5456   -4.4121   -5.2973 H         1 UNK         0.0786 
    102 H102       21.9930   -5.8316   -4.3516 H         1 UNK         0.0786 
    103 H103       20.5005   -4.9764   -4.0045 H         1 UNK         0.0786 
    104 H104       24.3196   -4.2101   -2.7747 H         1 UNK         0.2977 
    105 H105       28.2620    2.4521   -4.5027 H         1 UNK         0.3127 
    106 H106       30.1005    2.8513   -6.7029 H         1 UNK         0.0770 
    107 H107       27.4525    4.2342   -6.0133 H         1 UNK         0.0814 
    108 H108       28.6042    4.7792   -7.2246 H         1 UNK         0.0814 
    109 H109       29.0601    4.7783   -5.5297 H         1 UNK         0.0814 
    110 H110       27.1690    1.0078   -6.2802 H         1 UNK         0.2983 
    111 H111       25.9089    1.2943   -8.7406 H         1 UNK         0.0947 
    112 H112       24.7569   -0.8506   -8.1255 H         1 UNK         0.0806 
    113 H113       24.8412    0.2585   -6.7671 H         1 UNK         0.0806 
    114 H114       25.9394   -1.1160   -6.8528 H         1 UNK         0.0806 
    115 H115       28.5490   -0.9625   -7.9328 H         1 UNK         0.3000 
    116 H116       28.4784   -2.2634  -10.5662 H         1 UNK         0.0850 
    117 H117       30.3194   -2.5848   -8.1501 H         1 UNK         0.0810 
    118 H118       30.4698   -3.5112   -9.6396 H         1 UNK         0.0810 
    119 H119       29.0238   -3.6577   -8.6645 H         1 UNK         0.0810 
    120 H120       28.6315    0.3387  -11.0524 H         1 UNK         0.3040 
    121 H121       29.6334    1.9624  -12.1892 H         1 UNK         0.0766 
    122 H122       31.5280   -0.2384  -13.1714 H         1 UNK         0.0812 
    123 H123       29.9476    0.1385  -13.8560 H         1 UNK         0.0812 
    124 H124       31.2510    1.3110  -13.9522 H         1 UNK         0.0812 
    125 H125       30.2062    2.3765   -9.7304 H         1 UNK         0.3205 
    126 H126       31.4684    3.5021   -8.3046 H         1 UNK         0.0754 
    127 H127       33.2073    5.0292   -9.0935 H         1 UNK         0.0769 
    128 H128       31.8604    5.0454  -10.2186 H         1 UNK         0.0769 
    129 H129       33.3399    4.1749  -10.6217 H         1 UNK         0.0769 
    130 H130       31.7976    0.7877   -8.1944 H         1 UNK         0.2981 
    131 H131       34.5030   -0.0695   -8.0669 H         1 UNK         0.0541 
    132 H132       33.5627    1.3395   -4.2740 H         1 UNK         0.3459 
    133 H133       32.2575    0.9544   -5.3857 H         1 UNK         0.3459 
    134 H134       32.3187   -1.4669   -8.2292 H         1 UNK         0.0612 
    135 H135       32.1927   -1.3352   -6.5090 H         1 UNK         0.0612 
    136 H136       34.8606   -2.2605   -5.0648 H         1 UNK         0.0624 
    137 H137       34.7830   -3.9818   -5.3374 H         1 UNK         0.0624 
@<TRIPOS>BOND
     1    1    2 1    
     2    1   72 1    
     3    1   73 1    
     4    1   74 1    
     5    2    3 2    
     6    2    4 am   BACKBONE|DICT|INTERRES
     7    4    5 1    
     8    4   75 1    
     9    5    6 1    
    10    5   35 1    
    11    5   76 1    
    12    6    7 1    
    13    6   77 1    
    14    6   78 1    
    15    7    8 1    
    16    8    9 1    
    17    8   79 1    
    18    8   80 1    
    19    9   10 ar   
    20    9   14 ar   
    21   10   11 ar   
    22   10   81 1    
    23   11   12 ar   
    24   11   71 1    
    25   12   13 ar   
    26   12   82 1    
    27   13   14 ar   
    28   13   15 1    
    29   14   83 1    
    30   15   16 1    
    31   15   84 1    
    32   15   85 1    
    33   16   17 1    
    34   17   18 1    
    35   17   86 1    
    36   17   87 1    
    37   18   19 1    
    38   18   37 1    
    39   18   88 1    
    40   19   20 am   BACKBONE|DICT|INTERRES
    41   19   89 1    
    42   20   21 2    
    43   20   22 1    
    44   22   23 1    
    45   22   24 1    
    46   22   90 1    
    47   23   91 1    
    48   23   92 1    
    49   23   93 1    
    50   24   25 am   BACKBONE|DICT|INTERRES
    51   24   94 1    
    52   25   26 2    
    53   25   27 1    
    54   27   28 1    
    55   27   29 1    
    56   27   95 1    
    57   28   96 1    
    58   28   97 1    
    59   28   98 1    
    60   29   30 am   BACKBONE|DICT|INTERRES
    61   29   99 1    
    62   30   31 2    
    63   30   32 1    
    64   32   33 1    
    65   32   34 1    
    66   32  100 1    
    67   33  101 1    
    68   33  102 1    
    69   33  103 1    
    70   34   35 am   BACKBONE|DICT|INTERRES
    71   34  104 1    
    72   35   36 2    
    73   37   38 2    
    74   37   39 am   BACKBONE|DICT|INTERRES
    75   39   40 1    
    76   39  105 1    
    77   40   41 1    
    78   40   42 1    
    79   40  106 1    
    80   41  107 1    
    81   41  108 1    
    82   41  109 1    
    83   42   43 2    
    84   42   44 am   BACKBONE|DICT|INTERRES
    85   44   45 1    
    86   44  110 1    
    87   45   46 1    
    88   45   47 1    
    89   45  111 1    
    90   46  112 1    
    91   46  113 1    
    92   46  114 1    
    93   47   48 2    
    94   47   49 am   BACKBONE|DICT|INTERRES
    95   49   50 1    
    96   49  115 1    
    97   50   51 1    
    98   50   52 1    
    99   50  116 1    
   100   51  117 1    
   101   51  118 1    
   102   51  119 1    
   103   52   53 2    
   104   52   54 am   BACKBONE|DICT|INTERRES
   105   54   55 1    
   106   54  120 1    
   107   55   56 1    
   108   55   57 1    
   109   55  121 1    
   110   56  122 1    
   111   56  123 1    
   112   56  124 1    
   113   57   58 2    
   114   57   59 am   BACKBONE|DICT|INTERRES
   115   59   60 1    
   116   59  125 1    
   117   60   61 1    
   118   60   62 1    
   119   60  126 1    
   120   61  127 1    
   121   61  128 1    
   122   61  129 1    
   123   62   63 2    
   124   62   64 am   BACKBONE|DICT|INTERRES
   125   64   65 1    
   126   64  130 1    
   127   65   66 1    
   128   65   69 1    
   129   65  131 1    
   130   66   67 am   BACKBONE|DICT|INTERRES
   131   66   68 2    
   132   67  132 1    
   133   67  133 1    
   134   69   70 1    
   135   69  134 1    
   136   69  135 1    
   137   70   71 1    
   138   71  136 1    
   139   71  137 1    
@<TRIPOS>SUBSTRUCTURE
     1 UNK         1 GROUP             0       ****    0 ROOT    
