@<TRIPOS>MOLECULE
3R137
137   139    1
SMALL
USER_CHARGES


@<TRIPOS>ATOM
      1 CA         25.0766   -6.1437   -5.0832 C.3       0 UNK        -0.2020 
      2 C          25.0837   -5.3899   -3.7625 C.2       0 UNK         0.4855 
      3 O          24.0277   -4.9422   -3.3153 O.2       0 UNK        -0.5197 
      4 N          26.2659   -5.2446   -3.1463 N.am      1 UNK        -0.4892 
      5 CA         26.5340   -4.5722   -1.8669 C.3       1 UNK         0.0835 
      6 C6         28.0529   -4.4961   -1.5712 C.3       12 UNK        -0.0855 
      7 S7         28.9524   -6.0741   -1.7332 S.3       12 UNK        -0.2931 
      8 C8         30.5572   -5.6447   -0.9744 C.3       12 UNK         0.0378 
      9 C9         31.1211   -4.3283   -1.4993 C.ar      12 UNK        -0.0802 
     10 C10        31.7640   -4.2729   -2.7390 C.ar      12 UNK        -0.0944 
     11 C11        32.2681   -3.0611   -3.2240 C.ar      12 UNK        -0.0787 
     12 C12        32.1263   -1.8999   -2.4577 C.ar      12 UNK        -0.0862 
     13 C13        31.4626   -1.9369   -1.2269 C.ar      12 UNK        -0.0733 
     14 C14        30.9788   -3.1576   -0.7478 C.ar      12 UNK        -0.0832 
     15 C15        31.2684   -0.6719   -0.3965 C.3       12 UNK         0.0240 
     16 S16        30.5803    0.7345   -1.3356 S.3       12 UNK        -0.2522 
     17 C17        29.0291    0.0640   -2.0362 C.3       12 UNK        -0.0967 
     18 CA         29.0244    0.1691   -3.5824 C.3       5 UNK         0.0660 
     19 N          28.0470   -0.7295   -4.2018 N.am      5 UNK        -0.4015 
     20 C          27.9297   -0.9370   -5.5223 C.2       4 UNK         0.4946 
     21 O          28.5973   -0.3452   -6.3683 O.2       4 UNK        -0.5353 
     22 CA         26.9288   -1.9956   -5.9973 C.3       4 UNK         0.0277 
     23 CB         27.5639   -3.3911   -5.8862 C.3       4 UNK        -0.1981 
     24 N          25.6652   -1.9603   -5.2529 N.am      4 UNK        -0.4209 
     25 C          24.4937   -1.5573   -5.7699 C.2       3 UNK         0.4942 
     26 O          24.3746   -1.1109   -6.9116 O.2       3 UNK        -0.5208 
     27 CA         23.2214   -1.6944   -4.9091 C.3       3 UNK         0.0250 
     28 CB         22.2903   -2.7678   -5.4992 C.3       3 UNK        -0.1990 
     29 N          23.4978   -2.0338   -3.5125 N.am      3 UNK        -0.4232 
     30 C          23.6615   -1.1371   -2.5292 C.2       2 UNK         0.4993 
     31 O          23.5239    0.0770   -2.6805 O.2       2 UNK        -0.5286 
     32 CA         24.0732   -1.6755   -1.1428 C.3       2 UNK         0.0209 
     33 CB         22.8402   -1.8251   -0.2369 C.3       2 UNK        -0.1931 
     34 N          24.8041   -2.9497   -1.1785 N.am      2 UNK        -0.4546 
     35 C          25.9510   -3.1454   -1.8419 C.2       1 UNK         0.5154 
     36 O          26.5183   -2.2581   -2.4823 O.2       1 UNK        -0.5181 
     37 C          28.8290    1.6216   -4.0654 C.2       5 UNK         0.5014 
     38 O          27.7733    2.2077   -3.8137 O.2       5 UNK        -0.5248 
     39 N          29.8480    2.1516   -4.7591 N.am      6 UNK        -0.4434 
     40 CA         29.9049    3.4786   -5.3807 C.3       6 UNK         0.0363 
     41 CB         29.9340    4.5839   -4.3035 C.3       6 UNK        -0.1936 
     42 C          28.8184    3.7142   -6.4522 C.2       6 UNK         0.5081 
     43 O          28.3874    4.8530   -6.6408 O.2       6 UNK        -0.5248 
     44 N          28.4059    2.6510   -7.1594 N.am      7 UNK        -0.4718 
     45 CA         27.4178    2.7115   -8.2435 C.3       7 UNK         0.0273 
     46 CB         26.8411    1.3056   -8.4801 C.3       7 UNK        -0.1935 
     47 C          27.9715    3.2897   -9.5593 C.2       7 UNK         0.5018 
     48 O          27.1924    3.5012  -10.4895 O.2       7 UNK        -0.5186 
     49 N          29.2970    3.4820   -9.6458 N.am      8 UNK        -0.4240 
     50 CA         30.0982    3.9590  -10.7859 C.3       8 UNK         0.0235 
     51 CB         29.6264    5.3335  -11.2993 C.3       8 UNK        -0.2000 
     52 C          30.2079    2.9332  -11.9266 C.2       8 UNK         0.4941 
     53 O          31.3030    2.7315  -12.4516 O.2       8 UNK        -0.5273 
     54 N          29.0979    2.2532  -12.2423 N.am      9 UNK        -0.4262 
     55 CA         29.0531    1.0429  -13.0684 C.3       9 UNK         0.0264 
     56 CB         27.5912    0.7378  -13.4325 C.3       9 UNK        -0.1955 
     57 C          29.7016   -0.1722  -12.3734 C.2       9 UNK         0.5031 
     58 O          30.1130   -1.1110  -13.0565 O.2       9 UNK        -0.5390 
     59 N          29.7941   -0.1228  -11.0397 N.am      10 UNK        -0.4204 
     60 CA         30.5121   -1.0526  -10.1808 C.3       10 UNK         0.0237 
     61 CB         29.5457   -2.1279   -9.6531 C.3       10 UNK        -0.1985 
     62 C          31.1077   -0.2440   -9.0232 C.2       10 UNK         0.4970 
     63 O          30.5390    0.7872   -8.6517 O.2       10 UNK        -0.4914 
     64 N          32.2245   -0.7406   -8.4762 N.am      11 UNK        -0.4285 
     65 CA         32.8696   -0.2699   -7.2358 C.3       11 UNK         0.1007 
     66 C          33.2586    1.2416   -7.2218 C.2       11 UNK         0.5703 
     67 N          33.5942    1.8334   -8.3618 N.am      11 UNK        -0.7361 
     68 O          33.2688    1.8838   -6.1740 O.2       11 UNK        -0.4986 
     69 C69        32.0757   -0.7057   -5.9720 C.3       12 UNK        -0.0947 
     70 S70        31.8098   -2.5123   -5.8951 S.3       12 UNK        -0.2240 
     71 C71        32.9611   -3.0128   -4.5774 C.3       12 UNK         0.0194 
     72 H72        24.7220   -5.4943   -5.8831 H         1 UNK         0.0906 
     73 H73        26.0685   -6.5060   -5.3529 H         1 UNK         0.0906 
     74 H74        24.4082   -7.0018   -5.0201 H         1 UNK         0.0906 
     75 H75        27.0865   -5.6596   -3.5653 H         1 UNK         0.3140 
     76 H76        26.0584   -5.1612   -1.0804 H         1 UNK         0.1085 
     77 H77        28.2121   -4.1102   -0.5624 H         1 UNK         0.0836 
     78 H78        28.5382   -3.7918   -2.2511 H         1 UNK         0.0836 
     79 H79        31.2673   -6.4504   -1.1660 H         1 UNK         0.0731 
     80 H80        30.4353   -5.6005    0.1090 H         1 UNK         0.0731 
     81 H81        31.8629   -5.1735   -3.3299 H         1 UNK         0.1312 
     82 H82        32.5159   -0.9610   -2.8244 H         1 UNK         0.1406 
     83 H83        30.4748   -3.1960    0.2086 H         1 UNK         0.1631 
     84 H84        32.2322   -0.3758    0.0193 H         1 UNK         0.0717 
     85 H85        30.6135   -0.8645    0.4547 H         1 UNK         0.0717 
     86 H86        28.9239   -0.9783   -1.7320 H         1 UNK         0.0934 
     87 H87        28.1756    0.5859   -1.5989 H         1 UNK         0.0934 
     88 H88        29.9965   -0.1857   -3.9285 H         1 UNK         0.0739 
     89 H89        27.4541   -1.2554   -3.5618 H         1 UNK         0.3093 
     90 H90        26.7472   -1.8069   -7.0577 H         1 UNK         0.0818 
     91 H91        28.4969   -3.4373   -6.4506 H         1 UNK         0.0819 
     92 H92        27.8003   -3.6480   -4.8536 H         1 UNK         0.0819 
     93 H93        26.9058   -4.1591   -6.2901 H         1 UNK         0.0819 
     94 H94        25.7040   -2.2336   -4.2773 H         1 UNK         0.3041 
     95 H95        22.6978   -0.7370   -4.9553 H         1 UNK         0.0784 
     96 H96        22.0179   -2.5286   -6.5281 H         1 UNK         0.0793 
     97 H97        22.7606   -3.7516   -5.5073 H         1 UNK         0.0793 
     98 H98        21.3636   -2.8446   -4.9302 H         1 UNK         0.0793 
     99 H99        23.6240   -3.0213   -3.3021 H         1 UNK         0.3024 
    100 H100       24.7378   -0.9302   -0.6999 H         1 UNK         0.1171 
    101 H101       23.1236   -2.1051    0.7779 H         1 UNK         0.0786 
    102 H102       22.2887   -0.8862   -0.1693 H         1 UNK         0.0786 
    103 H103       22.1513   -2.5813   -0.6157 H         1 UNK         0.0786 
    104 H104       24.3628   -3.7375   -0.7251 H         1 UNK         0.2977 
    105 H105       30.6596    1.5731   -4.9239 H         1 UNK         0.3127 
    106 H106       30.8566    3.5172   -5.9130 H         1 UNK         0.0770 
    107 H107       28.9862    4.6519   -3.7685 H         1 UNK         0.0814 
    108 H108       30.1263    5.5608   -4.7488 H         1 UNK         0.0814 
    109 H109       30.7208    4.4036   -3.5710 H         1 UNK         0.0814 
    110 H110       28.7907    1.7330   -6.9521 H         1 UNK         0.2983 
    111 H111       26.6000    3.3637   -7.9292 H         1 UNK         0.0947 
    112 H112       26.0863    1.3127   -9.2675 H         1 UNK         0.0806 
    113 H113       26.3602    0.9201   -7.5810 H         1 UNK         0.0806 
    114 H114       27.6157    0.5969   -8.7748 H         1 UNK         0.0806 
    115 H115       29.8355    3.1759   -8.8456 H         1 UNK         0.3000 
    116 H116       31.1073    4.0902  -10.3914 H         1 UNK         0.0850 
    117 H117       30.3137    5.7208  -12.0525 H         1 UNK         0.0810 
    118 H118       29.5844    6.0646  -10.4919 H         1 UNK         0.0810 
    119 H119       28.6396    5.2856  -11.7604 H         1 UNK         0.0810 
    120 H120       28.2375    2.5355  -11.7791 H         1 UNK         0.3040 
    121 H121       29.6085    1.2345  -13.9888 H         1 UNK         0.0766 
    122 H122       27.1382    1.5640  -13.9808 H         1 UNK         0.0812 
    123 H123       26.9846    0.5506  -12.5453 H         1 UNK         0.0812 
    124 H124       27.5236   -0.1469  -14.0671 H         1 UNK         0.0812 
    125 H125       29.4848    0.7120  -10.5592 H         1 UNK         0.3205 
    126 H126       31.3229   -1.5231  -10.7413 H         1 UNK         0.0754 
    127 H127       29.0965   -2.6936  -10.4695 H         1 UNK         0.0769 
    128 H128       28.7388   -1.6890   -9.0641 H         1 UNK         0.0769 
    129 H129       30.0653   -2.8392   -9.0097 H         1 UNK         0.0769 
    130 H130       32.6213   -1.5804   -8.8709 H         1 UNK         0.2981 
    131 H131       33.8284   -0.7874   -7.1945 H         1 UNK         0.0541 
    132 H132       33.5845    1.3191   -9.2277 H         1 UNK         0.3459 
    133 H133       33.8528    2.8068   -8.3536 H         1 UNK         0.3459 
    134 H134       32.5827   -0.3802   -5.0636 H         1 UNK         0.0612 
    135 H135       31.1035   -0.2185   -5.9690 H         1 UNK         0.0612 
    136 H136       33.8198   -2.3407   -4.5453 H         1 UNK         0.0624 
    137 H137       33.3601   -3.9976   -4.8251 H         1 UNK         0.0624 
@<TRIPOS>BOND
     1    1    2 1    
     2    1   72 1    
     3    1   73 1    
     4    1   74 1    
     5    2    3 2    
     6    2    4 am   BACKBONE|DICT|INTERRES
     7    4    5 1    
     8    4   75 1    
     9    5    6 1    
    10    5   35 1    
    11    5   76 1    
    12    6    7 1    
    13    6   77 1    
    14    6   78 1    
    15    7    8 1    
    16    8    9 1    
    17    8   79 1    
    18    8   80 1    
    19    9   10 ar   
    20    9   14 ar   
    21   10   11 ar   
    22   10   81 1    
    23   11   12 ar   
    24   11   71 1    
    25   12   13 ar   
    26   12   82 1    
    27   13   14 ar   
    28   13   15 1    
    29   14   83 1    
    30   15   16 1    
    31   15   84 1    
    32   15   85 1    
    33   16   17 1    
    34   17   18 1    
    35   17   86 1    
    36   17   87 1    
    37   18   19 1    
    38   18   37 1    
    39   18   88 1    
    40   19   20 am   BACKBONE|DICT|INTERRES
    41   19   89 1    
    42   20   21 2    
    43   20   22 1    
    44   22   23 1    
    45   22   24 1    
    46   22   90 1    
    47   23   91 1    
    48   23   92 1    
    49   23   93 1    
    50   24   25 am   BACKBONE|DICT|INTERRES
    51   24   94 1    
    52   25   26 2    
    53   25   27 1    
    54   27   28 1    
    55   27   29 1    
    56   27   95 1    
    57   28   96 1    
    58   28   97 1    
    59   28   98 1    
    60   29   30 am   BACKBONE|DICT|INTERRES
    61   29   99 1    
    62   30   31 2    
    63   30   32 1    
    64   32   33 1    
    65   32   34 1    
    66   32  100 1    
    67   33  101 1    
    68   33  102 1    
    69   33  103 1    
    70   34   35 am   BACKBONE|DICT|INTERRES
    71   34  104 1    
    72   35   36 2    
    73   37   38 2    
    74   37   39 am   BACKBONE|DICT|INTERRES
    75   39   40 1    
    76   39  105 1    
    77   40   41 1    
    78   40   42 1    
    79   40  106 1    
    80   41  107 1    
    81   41  108 1    
    82   41  109 1    
    83   42   43 2    
    84   42   44 am   BACKBONE|DICT|INTERRES
    85   44   45 1    
    86   44  110 1    
    87   45   46 1    
    88   45   47 1    
    89   45  111 1    
    90   46  112 1    
    91   46  113 1    
    92   46  114 1    
    93   47   48 2    
    94   47   49 am   BACKBONE|DICT|INTERRES
    95   49   50 1    
    96   49  115 1    
    97   50   51 1    
    98   50   52 1    
    99   50  116 1    
   100   51  117 1    
   101   51  118 1    
   102   51  119 1    
   103   52   53 2    
   104   52   54 am   BACKBONE|DICT|INTERRES
   105   54   55 1    
   106   54  120 1    
   107   55   56 1    
   108   55   57 1    
   109   55  121 1    
   110   56  122 1    
   111   56  123 1    
   112   56  124 1    
   113   57   58 2    
   114   57   59 am   BACKBONE|DICT|INTERRES
   115   59   60 1    
   116   59  125 1    
   117   60   61 1    
   118   60   62 1    
   119   60  126 1    
   120   61  127 1    
   121   61  128 1    
   122   61  129 1    
   123   62   63 2    
   124   62   64 am   BACKBONE|DICT|INTERRES
   125   64   65 1    
   126   64  130 1    
   127   65   66 1    
   128   65   69 1    
   129   65  131 1    
   130   66   67 am   BACKBONE|DICT|INTERRES
   131   66   68 2    
   132   67  132 1    
   133   67  133 1    
   134   69   70 1    
   135   69  134 1    
   136   69  135 1    
   137   70   71 1    
   138   71  136 1    
   139   71  137 1    
@<TRIPOS>SUBSTRUCTURE
     1 UNK         1 GROUP             0       ****    0 ROOT    
