@<TRIPOS>MOLECULE
3R137
137   139    1
SMALL
USER_CHARGES


@<TRIPOS>ATOM
      1 CA         30.0031    1.3876   -1.6108 C.3       0 UNK        -0.2020 
      2 C          29.3784    0.0281   -1.8848 C.2       0 UNK         0.4855 
      3 O          29.0840   -0.2841   -3.0377 O.2       0 UNK        -0.5197 
      4 N          29.1813   -0.7840   -0.8375 N.am      1 UNK        -0.4892 
      5 CA         28.5649   -2.1098   -0.9379 C.3       1 UNK         0.0835 
      6 C6         28.8345   -2.9981    0.3040 C.3       12 UNK        -0.0855 
      7 S7         30.6070   -3.2779    0.6342 S.3       12 UNK        -0.2931 
      8 C8         30.9262   -4.8124   -0.2992 C.3       12 UNK         0.0378 
      9 C9         30.9445   -4.5531   -1.7984 C.ar      12 UNK        -0.0802 
     10 C10        32.0031   -3.8376   -2.3615 C.ar      12 UNK        -0.0944 
     11 C11        32.0130   -3.5440   -3.7255 C.ar      12 UNK        -0.0787 
     12 C12        30.9636   -3.9890   -4.5346 C.ar      12 UNK        -0.0862 
     13 C13        29.8805   -4.6881   -3.9833 C.ar      12 UNK        -0.0733 
     14 C14        29.8950   -4.9880   -2.6154 C.ar      12 UNK        -0.0832 
     15 C15        28.6774   -5.1362   -4.8191 C.3       12 UNK         0.0240 
     16 S16        28.3769   -4.2052   -6.3657 S.3       12 UNK        -0.2522 
     17 C17        28.2249   -2.4832   -5.7836 C.3       12 UNK        -0.0967 
     18 CA         27.5089   -1.5933   -6.8302 C.3       5 UNK         0.0660 
     19 N          26.0616   -1.8231   -6.8753 N.am      5 UNK        -0.4015 
     20 C          25.2340   -1.3237   -7.8052 C.2       4 UNK         0.4946 
     21 O          25.6030   -0.6383   -8.7586 O.2       4 UNK        -0.5353 
     22 CA         23.7333   -1.6042   -7.6195 C.3       4 UNK         0.0277 
     23 CB         23.3837   -3.0281   -8.0814 C.3       4 UNK        -0.1981 
     24 N          23.2881   -1.4074   -6.2377 N.am      4 UNK        -0.4209 
     25 C          23.2775   -0.2228   -5.6085 C.2       3 UNK         0.4942 
     26 O          23.5930    0.8399   -6.1408 O.2       3 UNK        -0.5208 
     27 CA         22.9027   -0.2297   -4.1159 C.3       3 UNK         0.0250 
     28 CB         21.3766   -0.1764   -3.9416 C.3       3 UNK        -0.1990 
     29 N          23.4475   -1.3681   -3.3645 N.am      3 UNK        -0.4232 
     30 C          24.7469   -1.6909   -3.3012 C.2       2 UNK         0.4993 
     31 O          25.6283   -1.1025   -3.9299 O.2       2 UNK        -0.5286 
     32 CA         25.1138   -2.9144   -2.4460 C.3       2 UNK         0.0209 
     33 CB         24.8585   -4.2085   -3.2377 C.3       2 UNK        -0.1931 
     34 N          26.5187   -2.8878   -2.0312 N.am      2 UNK        -0.4546 
     35 C          27.0487   -1.9956   -1.1837 C.2       1 UNK         0.5154 
     36 O          26.3891   -1.1501   -0.5720 O.2       1 UNK        -0.5181 
     37 C          27.8383   -0.1075   -6.6059 C.2       5 UNK         0.5014 
     38 O          28.7059    0.4235   -7.3020 O.2       5 UNK        -0.5248 
     39 N          27.1222    0.5360   -5.6746 N.am      6 UNK        -0.4434 
     40 CA         27.2363    1.9608   -5.3701 C.3       6 UNK         0.0363 
     41 CB         26.4043    2.2878   -4.1203 C.3       6 UNK        -0.1936 
     42 C          26.8316    2.8543   -6.5545 C.2       6 UNK         0.5081 
     43 O          27.5520    3.8040   -6.8611 O.2       6 UNK        -0.5248 
     44 N          25.7117    2.5247   -7.2159 N.am      7 UNK        -0.4718 
     45 CA         25.2080    3.2291   -8.3994 C.3       7 UNK         0.0273 
     46 CB         23.7893    2.7412   -8.7328 C.3       7 UNK        -0.1935 
     47 C          26.1272    3.0873   -9.6229 C.2       7 UNK         0.5018 
     48 O          26.3472    4.0727  -10.3283 O.2       7 UNK        -0.5186 
     49 N          26.6578    1.8767   -9.8460 N.am      8 UNK        -0.4240 
     50 CA         27.6089    1.5805  -10.9210 C.3       8 UNK         0.0235 
     51 CB         27.6643    0.0587  -11.1353 C.3       8 UNK        -0.2000 
     52 C          29.0257    2.1234  -10.6608 C.2       8 UNK         0.4941 
     53 O          29.8015    2.2266  -11.6118 O.2       8 UNK        -0.5273 
     54 N          29.3466    2.4146   -9.3897 N.am      9 UNK        -0.4262 
     55 CA         30.6795    2.7140   -8.8510 C.3       9 UNK         0.0264 
     56 CB         31.2252    4.0481   -9.4021 C.3       9 UNK        -0.1955 
     57 C          31.6426    1.5273   -9.0534 C.2       9 UNK         0.5031 
     58 O          32.7941    1.7155   -9.4534 O.2       9 UNK        -0.5390 
     59 N          31.1350    0.3152   -8.7822 N.am      10 UNK        -0.4204 
     60 CA         31.7867   -0.9708   -9.0560 C.3       10 UNK         0.0237 
     61 CB         30.8040   -2.1103   -8.7437 C.3       10 UNK        -0.1985 
     62 C          33.1110   -1.1885   -8.3059 C.2       10 UNK         0.4970 
     63 O          33.9505   -1.9558   -8.7784 O.2       10 UNK        -0.4914 
     64 N          33.2739   -0.5123   -7.1640 N.am      11 UNK        -0.4285 
     65 CA         34.4965   -0.5193   -6.3508 C.3       11 UNK         0.1007 
     66 C          35.6591    0.3336   -6.9397 C.2       11 UNK         0.5703 
     67 N          35.4463    1.1345   -7.9792 N.am      11 UNK        -0.7361 
     68 O          36.7816    0.2601   -6.4454 O.2       11 UNK        -0.4986 
     69 C69        34.2121   -0.1348   -4.8724 C.3       12 UNK        -0.0947 
     70 S70        32.7453   -0.9352   -4.1350 S.3       12 UNK        -0.2240 
     71 C71        33.1343   -2.7035   -4.3116 C.3       12 UNK         0.0194 
     72 H72        29.3357    2.1803   -1.9480 H         1 UNK         0.0906 
     73 H73        30.9441    1.4801   -2.1528 H         1 UNK         0.0906 
     74 H74        30.2044    1.5391   -0.5505 H         1 UNK         0.0906 
     75 H75        29.4285   -0.4826    0.0939 H         1 UNK         0.3140 
     76 H76        29.0048   -2.5902   -1.8118 H         1 UNK         0.1085 
     77 H77        28.3440   -3.9679    0.1983 H         1 UNK         0.0836 
     78 H78        28.3991   -2.5416    1.1953 H         1 UNK         0.0836 
     79 H79        31.8934   -5.2151    0.0052 H         1 UNK         0.0731 
     80 H80        30.1850   -5.5687   -0.0364 H         1 UNK         0.0731 
     81 H81        32.8042   -3.4793   -1.7292 H         1 UNK         0.1312 
     82 H82        30.9842   -3.7582   -5.5900 H         1 UNK         0.1406 
     83 H83        29.0732   -5.5393   -2.1783 H         1 UNK         0.1631 
     84 H84        27.7707   -5.0845   -4.2158 H         1 UNK         0.0717 
     85 H85        28.8130   -6.1873   -5.0766 H         1 UNK         0.0717 
     86 H86        27.7080   -2.4573   -4.8235 H         1 UNK         0.0934 
     87 H87        29.2309   -2.1090   -5.5844 H         1 UNK         0.0934 
     88 H88        27.9003   -1.8444   -7.8182 H         1 UNK         0.0739 
     89 H89        25.6668   -2.3227   -6.0935 H         1 UNK         0.3093 
     90 H90        23.1870   -0.8988   -8.2498 H         1 UNK         0.0818 
     91 H91        23.6957   -3.1889   -9.1144 H         1 UNK         0.0819 
     92 H92        23.8744   -3.7875   -7.4713 H         1 UNK         0.0819 
     93 H93        22.3089   -3.2059   -8.0390 H         1 UNK         0.0819 
     94 H94        23.0053   -2.2273   -5.7215 H         1 UNK         0.3041 
     95 H95        23.3252    0.6755   -3.6750 H         1 UNK         0.0784 
     96 H96        20.9525    0.6732   -4.4792 H         1 UNK         0.0793 
     97 H97        20.8928   -1.0769   -4.3219 H         1 UNK         0.0793 
     98 H98        21.1000   -0.0629   -2.8932 H         1 UNK         0.0793 
     99 H99        22.7836   -1.9146   -2.8343 H         1 UNK         0.3024 
    100 H100       24.4926   -2.9108   -1.5473 H         1 UNK         0.1171 
    101 H101       23.8062   -4.3034   -3.5087 H         1 UNK         0.0786 
    102 H102       25.4354   -4.2386   -4.1630 H         1 UNK         0.0786 
    103 H103       25.1173   -5.0909   -2.6518 H         1 UNK         0.0786 
    104 H104       27.1336   -3.5351   -2.4986 H         1 UNK         0.2977 
    105 H105       26.4810   -0.0080   -5.0971 H         1 UNK         0.3127 
    106 H106       28.2851    2.1620   -5.1417 H         1 UNK         0.0770 
    107 H107       25.3432    2.0950   -4.2805 H         1 UNK         0.0814 
    108 H108       26.5097    3.3377   -3.8446 H         1 UNK         0.0814 
    109 H109       26.7259    1.6912   -3.2659 H         1 UNK         0.0814 
    110 H110       25.1414    1.7574   -6.8680 H         1 UNK         0.2983 
    111 H111       25.1521    4.2919   -8.1538 H         1 UNK         0.0947 
    112 H112       23.7694    1.6701   -8.9382 H         1 UNK         0.0806 
    113 H113       23.3952    3.2518   -9.6126 H         1 UNK         0.0806 
    114 H114       23.1009    2.9360   -7.9103 H         1 UNK         0.0806 
    115 H115       26.3742    1.0961   -9.2581 H         1 UNK         0.3000 
    116 H116       27.2445    2.0429  -11.8409 H         1 UNK         0.0850 
    117 H117       28.3443   -0.2002  -11.9480 H         1 UNK         0.0810 
    118 H118       26.6836   -0.3415  -11.3931 H         1 UNK         0.0810 
    119 H119       28.0116   -0.4594  -10.2404 H         1 UNK         0.0810 
    120 H120       28.6332    2.2542   -8.6888 H         1 UNK         0.3040 
    121 H121       30.5530    2.8276   -7.7731 H         1 UNK         0.0766 
    122 H122       31.4366    3.9923  -10.4702 H         1 UNK         0.0812 
    123 H123       32.1550    4.3229   -8.9028 H         1 UNK         0.0812 
    124 H124       30.5174    4.8613   -9.2412 H         1 UNK         0.0812 
    125 H125       30.1984    0.2806   -8.3808 H         1 UNK         0.3205 
    126 H126       32.0140   -0.9968  -10.1236 H         1 UNK         0.0754 
    127 H127       31.2441   -3.0823   -8.9712 H         1 UNK         0.0769 
    128 H128       29.8926   -2.0235   -9.3350 H         1 UNK         0.0769 
    129 H129       30.5250   -2.1190   -7.6901 H         1 UNK         0.0769 
    130 H130       32.5300    0.0892   -6.8448 H         1 UNK         0.2981 
    131 H131       34.8733   -1.5433   -6.3475 H         1 UNK         0.0541 
    132 H132       36.2134    1.6743   -8.3468 H         1 UNK         0.3459 
    133 H133       34.5299    1.2095   -8.4062 H         1 UNK         0.3459 
    134 H134       34.0607    0.9429   -4.7879 H         1 UNK         0.0612 
    135 H135       35.0762   -0.3687   -4.2480 H         1 UNK         0.0612 
    136 H136       33.2702   -2.9513   -5.3649 H         1 UNK         0.0624 
    137 H137       34.0776   -2.9236   -3.8095 H         1 UNK         0.0624 
@<TRIPOS>BOND
     1    1    2 1    
     2    1   72 1    
     3    1   73 1    
     4    1   74 1    
     5    2    3 2    
     6    2    4 am   BACKBONE|DICT|INTERRES
     7    4    5 1    
     8    4   75 1    
     9    5    6 1    
    10    5   35 1    
    11    5   76 1    
    12    6    7 1    
    13    6   77 1    
    14    6   78 1    
    15    7    8 1    
    16    8    9 1    
    17    8   79 1    
    18    8   80 1    
    19    9   10 ar   
    20    9   14 ar   
    21   10   11 ar   
    22   10   81 1    
    23   11   12 ar   
    24   11   71 1    
    25   12   13 ar   
    26   12   82 1    
    27   13   14 ar   
    28   13   15 1    
    29   14   83 1    
    30   15   16 1    
    31   15   84 1    
    32   15   85 1    
    33   16   17 1    
    34   17   18 1    
    35   17   86 1    
    36   17   87 1    
    37   18   19 1    
    38   18   37 1    
    39   18   88 1    
    40   19   20 am   BACKBONE|DICT|INTERRES
    41   19   89 1    
    42   20   21 2    
    43   20   22 1    
    44   22   23 1    
    45   22   24 1    
    46   22   90 1    
    47   23   91 1    
    48   23   92 1    
    49   23   93 1    
    50   24   25 am   BACKBONE|DICT|INTERRES
    51   24   94 1    
    52   25   26 2    
    53   25   27 1    
    54   27   28 1    
    55   27   29 1    
    56   27   95 1    
    57   28   96 1    
    58   28   97 1    
    59   28   98 1    
    60   29   30 am   BACKBONE|DICT|INTERRES
    61   29   99 1    
    62   30   31 2    
    63   30   32 1    
    64   32   33 1    
    65   32   34 1    
    66   32  100 1    
    67   33  101 1    
    68   33  102 1    
    69   33  103 1    
    70   34   35 am   BACKBONE|DICT|INTERRES
    71   34  104 1    
    72   35   36 2    
    73   37   38 2    
    74   37   39 am   BACKBONE|DICT|INTERRES
    75   39   40 1    
    76   39  105 1    
    77   40   41 1    
    78   40   42 1    
    79   40  106 1    
    80   41  107 1    
    81   41  108 1    
    82   41  109 1    
    83   42   43 2    
    84   42   44 am   BACKBONE|DICT|INTERRES
    85   44   45 1    
    86   44  110 1    
    87   45   46 1    
    88   45   47 1    
    89   45  111 1    
    90   46  112 1    
    91   46  113 1    
    92   46  114 1    
    93   47   48 2    
    94   47   49 am   BACKBONE|DICT|INTERRES
    95   49   50 1    
    96   49  115 1    
    97   50   51 1    
    98   50   52 1    
    99   50  116 1    
   100   51  117 1    
   101   51  118 1    
   102   51  119 1    
   103   52   53 2    
   104   52   54 am   BACKBONE|DICT|INTERRES
   105   54   55 1    
   106   54  120 1    
   107   55   56 1    
   108   55   57 1    
   109   55  121 1    
   110   56  122 1    
   111   56  123 1    
   112   56  124 1    
   113   57   58 2    
   114   57   59 am   BACKBONE|DICT|INTERRES
   115   59   60 1    
   116   59  125 1    
   117   60   61 1    
   118   60   62 1    
   119   60  126 1    
   120   61  127 1    
   121   61  128 1    
   122   61  129 1    
   123   62   63 2    
   124   62   64 am   BACKBONE|DICT|INTERRES
   125   64   65 1    
   126   64  130 1    
   127   65   66 1    
   128   65   69 1    
   129   65  131 1    
   130   66   67 am   BACKBONE|DICT|INTERRES
   131   66   68 2    
   132   67  132 1    
   133   67  133 1    
   134   69   70 1    
   135   69  134 1    
   136   69  135 1    
   137   70   71 1    
   138   71  136 1    
   139   71  137 1    
@<TRIPOS>SUBSTRUCTURE
     1 UNK         1 GROUP             0       ****    0 ROOT    
