@<TRIPOS>MOLECULE
3R137
137   139    1
SMALL
USER_CHARGES


@<TRIPOS>ATOM
      1 CA         25.5870   -5.3985   -3.9816 C.3       0 UNK        -0.2020 
      2 C          25.5074   -4.1062   -3.1825 C.2       0 UNK         0.4855 
      3 O          24.4276   -3.5298   -3.0565 O.2       0 UNK        -0.5197 
      4 N          26.6445   -3.6525   -2.6397 N.am      1 UNK        -0.4892 
      5 CA         26.7718   -2.4824   -1.7606 C.3       1 UNK         0.0835 
      6 C6         28.2183   -2.3101   -1.2382 C.3       12 UNK        -0.0855 
      7 S7         28.7979   -3.8016   -0.3569 S.3       12 UNK        -0.2931 
      8 C8         30.6119   -3.6305   -0.4585 C.3       12 UNK         0.0378 
      9 C9         31.1470   -3.5426   -1.8852 C.ar      12 UNK        -0.0802 
     10 C10        32.1255   -2.5929   -2.1949 C.ar      12 UNK        -0.0944 
     11 C11        32.6361   -2.4968   -3.4914 C.ar      12 UNK        -0.0787 
     12 C12        32.1559   -3.3505   -4.4874 C.ar      12 UNK        -0.0862 
     13 C13        31.1679   -4.2952   -4.1972 C.ar      12 UNK        -0.0733 
     14 C14        30.6824   -4.4007   -2.8900 C.ar      12 UNK        -0.0832 
     15 C15        30.6260   -5.1991   -5.2968 C.3       12 UNK         0.0240 
     16 S16        29.8781   -4.2568   -6.6670 S.3       12 UNK        -0.2522 
     17 C17        28.4652   -3.4542   -5.8444 C.3       12 UNK        -0.0967 
     18 CA         27.8135   -2.3513   -6.7203 C.3       5 UNK         0.0660 
     19 N          26.3724   -2.2448   -6.4503 N.am      5 UNK        -0.4015 
     20 C          25.5126   -1.4544   -7.1050 C.2       4 UNK         0.4946 
     21 O          25.8525   -0.5891   -7.9077 O.2       4 UNK        -0.5353 
     22 CA         24.0202   -1.6835   -6.8516 C.3       4 UNK         0.0277 
     23 CB         23.5993   -3.1346   -7.1612 C.3       4 UNK        -0.1981 
     24 N          23.6235   -1.3033   -5.4953 N.am      4 UNK        -0.4209 
     25 C          22.3708   -0.9474   -5.1675 C.2       3 UNK         0.4942 
     26 O          21.4516   -0.8693   -5.9844 O.2       3 UNK        -0.5208 
     27 CA         22.0587   -0.6361   -3.6929 C.3       3 UNK         0.0250 
     28 CB         21.3047   -1.8070   -3.0407 C.3       3 UNK        -0.1990 
     29 N          23.2508   -0.3310   -2.9036 N.am      3 UNK        -0.4232 
     30 C          23.8597    0.8629   -2.8897 C.2       2 UNK         0.4993 
     31 O          23.4398    1.8453   -3.4999 O.2       2 UNK        -0.5286 
     32 CA         25.1484    1.0011   -2.0577 C.3       2 UNK         0.0209 
     33 CB         24.9048    1.8880   -0.8252 C.3       2 UNK        -0.1931 
     34 N          25.7221   -0.2759   -1.6181 N.am      2 UNK        -0.4546 
     35 C          26.2840   -1.1817   -2.4282 C.2       1 UNK         0.5154 
     36 O          26.4143   -1.0201   -3.6451 O.2       1 UNK        -0.5181 
     37 C          28.5686   -1.0065   -6.6204 C.2       5 UNK         0.5014 
     38 O          29.2773   -0.6202   -7.5549 O.2       5 UNK        -0.5248 
     39 N          28.3677   -0.2953   -5.5043 N.am      6 UNK        -0.4434 
     40 CA         28.9698    1.0146   -5.2574 C.3       6 UNK         0.0363 
     41 CB         29.0556    1.2673   -3.7449 C.3       6 UNK        -0.1936 
     42 C          28.2200    2.1504   -5.9738 C.2       6 UNK         0.5081 
     43 O          28.8400    3.1661   -6.2845 O.2       6 UNK        -0.5248 
     44 N          26.9230    1.9602   -6.2623 N.am      7 UNK        -0.4718 
     45 CA         26.1016    2.8973   -7.0399 C.3       7 UNK         0.0273 
     46 CB         24.6128    2.5517   -6.8805 C.3       7 UNK        -0.1935 
     47 C          26.5023    2.9278   -8.5247 C.2       7 UNK         0.5018 
     48 O          26.5675    4.0051   -9.1167 O.2       7 UNK        -0.5186 
     49 N          26.8154    1.7491   -9.0797 N.am      8 UNK        -0.4240 
     50 CA         27.4000    1.5585  -10.4099 C.3       8 UNK         0.0235 
     51 CB         27.2278    0.0849  -10.8158 C.3       8 UNK        -0.2000 
     52 C          28.8855    1.9626  -10.4891 C.2       8 UNK         0.4941 
     53 O          29.4312    2.0066  -11.5923 O.2       8 UNK        -0.5273 
     54 N          29.5076    2.2357   -9.3318 N.am      9 UNK        -0.4262 
     55 CA         30.9066    2.6175   -9.1280 C.3       9 UNK         0.0264 
     56 CB         31.2096    3.9860   -9.7746 C.3       9 UNK        -0.1955 
     57 C          31.8964    1.5163   -9.5473 C.2       9 UNK         0.5031 
     58 O          32.9719    1.8232  -10.0675 O.2       9 UNK        -0.5390 
     59 N          31.5478    0.2490   -9.2696 N.am      10 UNK        -0.4204 
     60 CA         32.4018   -0.9187   -9.5274 C.3       10 UNK         0.0237 
     61 CB         31.5899   -2.2007   -9.2962 C.3       10 UNK        -0.1985 
     62 C          33.6892   -0.9385   -8.6799 C.2       10 UNK         0.4970 
     63 O          34.6384   -1.6364   -9.0382 O.2       10 UNK        -0.4914 
     64 N          33.6993   -0.1635   -7.5887 N.am      11 UNK        -0.4285 
     65 CA         34.8493    0.0830   -6.7104 C.3       11 UNK         0.1007 
     66 C          36.0086    0.8847   -7.3729 C.2       11 UNK         0.5703 
     67 N          35.8025    1.5444   -8.5085 N.am      11 UNK        -0.7361 
     68 O          37.1175    0.9049   -6.8443 O.2       11 UNK        -0.4986 
     69 C69        34.4192    0.7536   -5.3746 C.3       12 UNK        -0.0947 
     70 S70        32.9519   -0.0082   -4.6027 S.3       12 UNK        -0.2240 
     71 C71        33.7009   -1.4685   -3.8272 C.3       12 UNK         0.0194 
     72 H72        26.5785   -5.8484   -3.9335 H         1 UNK         0.0906 
     73 H73        25.3448   -5.2185   -5.0275 H         1 UNK         0.0906 
     74 H74        24.8723   -6.1215   -3.5893 H         1 UNK         0.0906 
     75 H75        27.4958   -4.1806   -2.7585 H         1 UNK         0.3140 
     76 H76        26.1218   -2.6728   -0.9036 H         1 UNK         0.1085 
     77 H77        28.2866   -1.4661   -0.5488 H         1 UNK         0.0836 
     78 H78        28.8911   -2.0823   -2.0672 H         1 UNK         0.0836 
     79 H79        30.9038   -2.7502    0.1165 H         1 UNK         0.0731 
     80 H80        31.0731   -4.4871    0.0345 H         1 UNK         0.0731 
     81 H81        32.4931   -1.9260   -1.4267 H         1 UNK         0.1312 
     82 H82        32.5377   -3.2662   -5.4961 H         1 UNK         0.1406 
     83 H83        29.9325   -5.1429   -2.6537 H         1 UNK         0.1631 
     84 H84        29.8871   -5.8986   -4.9031 H         1 UNK         0.0717 
     85 H85        31.4434   -5.8041   -5.6914 H         1 UNK         0.0717 
     86 H86        27.7489   -4.2503   -5.6411 H         1 UNK         0.0934 
     87 H87        28.7631   -3.0641   -4.8691 H         1 UNK         0.0934 
     88 H88        27.8817   -2.6634   -7.7650 H         1 UNK         0.0739 
     89 H89        25.9999   -2.8860   -5.7687 H         1 UNK         0.3093 
     90 H90        23.4981   -1.0329   -7.5575 H         1 UNK         0.0818 
     91 H91        23.9895   -3.4621   -8.1261 H         1 UNK         0.0819 
     92 H92        23.9543   -3.8341   -6.4053 H         1 UNK         0.0819 
     93 H93        22.5142   -3.2273   -7.2085 H         1 UNK         0.0819 
     94 H94        24.3394   -1.3181   -4.7787 H         1 UNK         0.3041 
     95 H95        21.3981    0.2338   -3.6788 H         1 UNK         0.0784 
     96 H96        20.3814   -2.0241   -3.5796 H         1 UNK         0.0793 
     97 H97        21.8993   -2.7208   -3.0363 H         1 UNK         0.0793 
     98 H98        21.0307   -1.5789   -2.0105 H         1 UNK         0.0793 
     99 H99        23.6625   -1.0972   -2.3891 H         1 UNK         0.3024 
    100 H100       25.8742    1.5028   -2.6996 H         1 UNK         0.1171 
    101 H101       24.5102    2.8629   -1.1157 H         1 UNK         0.0786 
    102 H102       24.1863    1.4378   -0.1391 H         1 UNK         0.0786 
    103 H103       25.8292    2.0676   -0.2759 H         1 UNK         0.0786 
    104 H104       25.6559   -0.4771   -0.6299 H         1 UNK         0.2977 
    105 H105       27.7123   -0.6451   -4.8053 H         1 UNK         0.3127 
    106 H106       29.9912    1.0051   -5.6453 H         1 UNK         0.0770 
    107 H107       28.0722    1.2884   -3.2798 H         1 UNK         0.0814 
    108 H108       29.5362    2.2242   -3.5374 H         1 UNK         0.0814 
    109 H109       29.6457    0.4954   -3.2498 H         1 UNK         0.0814 
    110 H110       26.4999    1.0783   -6.0121 H         1 UNK         0.2983 
    111 H111       26.2599    3.9005   -6.6374 H         1 UNK         0.0947 
    112 H112       24.3835    1.5449   -7.2288 H         1 UNK         0.0806 
    113 H113       23.9900    3.2420   -7.4511 H         1 UNK         0.0806 
    114 H114       24.3014    2.6261   -5.8398 H         1 UNK         0.0806 
    115 H115       26.6396    0.9003   -8.5417 H         1 UNK         0.3000 
    116 H116       26.8523    2.1817  -11.1198 H         1 UNK         0.0850 
    117 H117       26.1772   -0.2062  -10.8157 H         1 UNK         0.0810 
    118 H118       27.7586   -0.5824  -10.1348 H         1 UNK         0.0810 
    119 H119       27.6145   -0.0955  -11.8196 H         1 UNK         0.0810 
    120 H120       28.9551    2.1652   -8.4882 H         1 UNK         0.3040 
    121 H121       31.0305    2.7342   -8.0503 H         1 UNK         0.0766 
    122 H122       31.1714    3.9382  -10.8632 H         1 UNK         0.0812 
    123 H123       32.2058    4.3355   -9.5007 H         1 UNK         0.0812 
    124 H124       30.4995    4.7449   -9.4459 H         1 UNK         0.0812 
    125 H125       30.6615    0.0659   -8.8031 H         1 UNK         0.3205 
    126 H126       32.7019   -0.8864  -10.5768 H         1 UNK         0.0754 
    127 H127       32.1709   -3.0871   -9.5545 H         1 UNK         0.0769 
    128 H128       30.6829   -2.2165   -9.9008 H         1 UNK         0.0769 
    129 H129       31.2983   -2.2958   -8.2507 H         1 UNK         0.0769 
    130 H130       32.8606    0.3466   -7.3600 H         1 UNK         0.2981 
    131 H131       35.2678   -0.8953   -6.4696 H         1 UNK         0.0541 
    132 H132       36.5645    2.0558   -8.9245 H         1 UNK         0.3459 
    133 H133       34.8955    1.5393   -8.9570 H         1 UNK         0.3459 
    134 H134       34.1807    1.8057   -5.5416 H         1 UNK         0.0612 
    135 H135       35.2409    0.7397   -4.6561 H         1 UNK         0.0612 
    136 H136       34.2465   -1.1640   -2.9329 H         1 UNK         0.0624 
    137 H137       34.4324   -1.9162   -4.5008 H         1 UNK         0.0624 
@<TRIPOS>BOND
     1    1    2 1    
     2    1   72 1    
     3    1   73 1    
     4    1   74 1    
     5    2    3 2    
     6    2    4 am   BACKBONE|DICT|INTERRES
     7    4    5 1    
     8    4   75 1    
     9    5    6 1    
    10    5   35 1    
    11    5   76 1    
    12    6    7 1    
    13    6   77 1    
    14    6   78 1    
    15    7    8 1    
    16    8    9 1    
    17    8   79 1    
    18    8   80 1    
    19    9   10 ar   
    20    9   14 ar   
    21   10   11 ar   
    22   10   81 1    
    23   11   12 ar   
    24   11   71 1    
    25   12   13 ar   
    26   12   82 1    
    27   13   14 ar   
    28   13   15 1    
    29   14   83 1    
    30   15   16 1    
    31   15   84 1    
    32   15   85 1    
    33   16   17 1    
    34   17   18 1    
    35   17   86 1    
    36   17   87 1    
    37   18   19 1    
    38   18   37 1    
    39   18   88 1    
    40   19   20 am   BACKBONE|DICT|INTERRES
    41   19   89 1    
    42   20   21 2    
    43   20   22 1    
    44   22   23 1    
    45   22   24 1    
    46   22   90 1    
    47   23   91 1    
    48   23   92 1    
    49   23   93 1    
    50   24   25 am   BACKBONE|DICT|INTERRES
    51   24   94 1    
    52   25   26 2    
    53   25   27 1    
    54   27   28 1    
    55   27   29 1    
    56   27   95 1    
    57   28   96 1    
    58   28   97 1    
    59   28   98 1    
    60   29   30 am   BACKBONE|DICT|INTERRES
    61   29   99 1    
    62   30   31 2    
    63   30   32 1    
    64   32   33 1    
    65   32   34 1    
    66   32  100 1    
    67   33  101 1    
    68   33  102 1    
    69   33  103 1    
    70   34   35 am   BACKBONE|DICT|INTERRES
    71   34  104 1    
    72   35   36 2    
    73   37   38 2    
    74   37   39 am   BACKBONE|DICT|INTERRES
    75   39   40 1    
    76   39  105 1    
    77   40   41 1    
    78   40   42 1    
    79   40  106 1    
    80   41  107 1    
    81   41  108 1    
    82   41  109 1    
    83   42   43 2    
    84   42   44 am   BACKBONE|DICT|INTERRES
    85   44   45 1    
    86   44  110 1    
    87   45   46 1    
    88   45   47 1    
    89   45  111 1    
    90   46  112 1    
    91   46  113 1    
    92   46  114 1    
    93   47   48 2    
    94   47   49 am   BACKBONE|DICT|INTERRES
    95   49   50 1    
    96   49  115 1    
    97   50   51 1    
    98   50   52 1    
    99   50  116 1    
   100   51  117 1    
   101   51  118 1    
   102   51  119 1    
   103   52   53 2    
   104   52   54 am   BACKBONE|DICT|INTERRES
   105   54   55 1    
   106   54  120 1    
   107   55   56 1    
   108   55   57 1    
   109   55  121 1    
   110   56  122 1    
   111   56  123 1    
   112   56  124 1    
   113   57   58 2    
   114   57   59 am   BACKBONE|DICT|INTERRES
   115   59   60 1    
   116   59  125 1    
   117   60   61 1    
   118   60   62 1    
   119   60  126 1    
   120   61  127 1    
   121   61  128 1    
   122   61  129 1    
   123   62   63 2    
   124   62   64 am   BACKBONE|DICT|INTERRES
   125   64   65 1    
   126   64  130 1    
   127   65   66 1    
   128   65   69 1    
   129   65  131 1    
   130   66   67 am   BACKBONE|DICT|INTERRES
   131   66   68 2    
   132   67  132 1    
   133   67  133 1    
   134   69   70 1    
   135   69  134 1    
   136   69  135 1    
   137   70   71 1    
   138   71  136 1    
   139   71  137 1    
@<TRIPOS>SUBSTRUCTURE
     1 UNK         1 GROUP             0       ****    0 ROOT    
