@<TRIPOS>MOLECULE
3R137
137   139    1
SMALL
USER_CHARGES


@<TRIPOS>ATOM
      1 CA         24.8524   -5.5002   -2.8933 C.3       0 UNK        -0.2020 
      2 C          25.4485   -4.6601   -1.7744 C.2       0 UNK         0.4855 
      3 O          24.7451   -3.8504   -1.1709 O.2       0 UNK        -0.5197 
      4 N          26.7442   -4.8382   -1.4931 N.am      1 UNK        -0.4892 
      5 CA         27.5116   -4.1619   -0.4378 C.3       1 UNK         0.0835 
      6 C6         28.6689   -5.0499    0.1186 C.3       12 UNK        -0.0855 
      7 S7         29.4669   -6.1917   -1.0707 S.3       12 UNK        -0.2931 
      8 C8         30.9788   -5.3002   -1.5716 C.3       12 UNK         0.0378 
      9 C9         30.7581   -4.3743   -2.7630 C.ar      12 UNK        -0.0802 
     10 C10        31.2685   -3.0715   -2.7440 C.ar      12 UNK        -0.0944 
     11 C11        31.0748   -2.2116   -3.8299 C.ar      12 UNK        -0.0787 
     12 C12        30.3607   -2.6701   -4.9404 C.ar      12 UNK        -0.0862 
     13 C13        29.8554   -3.9718   -4.9813 C.ar      12 UNK        -0.0733 
     14 C14        30.0698   -4.8229   -3.8958 C.ar      12 UNK        -0.0832 
     15 C15        29.0883   -4.4623   -6.2010 C.3       12 UNK         0.0240 
     16 S16        27.3200   -4.7519   -5.8624 S.3       12 UNK        -0.2522 
     17 C17        26.7299   -3.1310   -5.2697 C.3       12 UNK        -0.0967 
     18 CA         26.4472   -2.1185   -6.4139 C.3       5 UNK         0.0660 
     19 N          25.2008   -1.3777   -6.2086 N.am      5 UNK        -0.4015 
     20 C          24.6096   -0.6183   -7.1443 C.2       4 UNK         0.4946 
     21 O          25.0181   -0.5165   -8.3010 O.2       4 UNK        -0.5353 
     22 CA         23.3868    0.2098   -6.7111 C.3       4 UNK         0.0277 
     23 CB         22.0911   -0.5853   -6.9353 C.3       4 UNK        -0.1981 
     24 N          23.4518    0.6596   -5.3178 N.am      4 UNK        -0.4209 
     25 C          24.4085    1.4520   -4.8146 C.2       3 UNK         0.4942 
     26 O          25.3201    1.9290   -5.4914 O.2       3 UNK        -0.5208 
     27 CA         24.3835    1.7238   -3.2987 C.3       3 UNK         0.0250 
     28 CB         23.0738    1.2892   -2.6009 C.3       3 UNK        -0.1990 
     29 N          25.5413    1.1316   -2.6139 N.am      3 UNK        -0.4232 
     30 C          25.9203   -0.1563   -2.6233 C.2       2 UNK         0.4993 
     31 O          25.3619   -1.0268   -3.2958 O.2       2 UNK        -0.5286 
     32 CA         27.1279   -0.5415   -1.7511 C.3       2 UNK         0.0209 
     33 CB         27.3035    0.3735   -0.5156 C.3       2 UNK        -0.1931 
     34 N          26.9818   -1.9388   -1.3481 N.am      2 UNK        -0.4546 
     35 C          27.9307   -2.7210   -0.8206 C.2       1 UNK         0.5154 
     36 O          29.0769   -2.3271   -0.6030 O.2       1 UNK        -0.5181 
     37 C          27.6253   -1.1470   -6.6056 C.2       5 UNK         0.5014 
     38 O          28.4134   -1.3253   -7.5335 O.2       5 UNK        -0.5248 
     39 N          27.7057   -0.1184   -5.7461 N.am      6 UNK        -0.4434 
     40 CA         28.7323    0.9257   -5.7978 C.3       6 UNK         0.0363 
     41 CB         28.6412    1.8414   -4.5656 C.3       6 UNK        -0.1936 
     42 C          28.6690    1.7501   -7.0879 C.2       6 UNK         0.5081 
     43 O          29.7182    2.0520   -7.6550 O.2       6 UNK        -0.5248 
     44 N          27.4476    2.0607   -7.5413 N.am      7 UNK        -0.4718 
     45 CA         27.1799    2.7163   -8.8209 C.3       7 UNK         0.0273 
     46 CB         25.6946    3.1037   -8.8988 C.3       7 UNK        -0.1935 
     47 C          27.5864    1.8514  -10.0267 C.2       7 UNK         0.5018 
     48 O          28.2063    2.3723  -10.9540 O.2       7 UNK        -0.5186 
     49 N          27.2483    0.5536   -9.9883 N.am      8 UNK        -0.4240 
     50 CA         27.5760   -0.4197  -11.0337 C.3       8 UNK         0.0235 
     51 CB         26.7868   -1.7188  -10.8023 C.3       8 UNK        -0.2000 
     52 C          29.0818   -0.7113  -11.1384 C.2       8 UNK         0.4941 
     53 O          29.6203   -0.7105  -12.2462 O.2       8 UNK        -0.5273 
     54 N          29.7330   -0.9561   -9.9933 N.am      9 UNK        -0.4262 
     55 CA         31.1646   -1.2611   -9.9074 C.3       9 UNK         0.0264 
     56 CB         31.4436   -1.9867   -8.5834 C.3       9 UNK        -0.1955 
     57 C          32.0705   -0.0238  -10.0302 C.2       9 UNK         0.5031 
     58 O          33.2620   -0.1904  -10.2951 O.2       9 UNK        -0.5390 
     59 N          31.5048    1.1742   -9.8195 N.am      10 UNK        -0.4204 
     60 CA         32.1713    2.4781   -9.7478 C.3       10 UNK         0.0237 
     61 CB         32.8207    2.8580  -11.0964 C.3       10 UNK        -0.1985 
     62 C          33.1396    2.5514   -8.5519 C.2       10 UNK         0.4970 
     63 O          34.3147    2.8819   -8.7241 O.2       10 UNK        -0.4914 
     64 N          32.6197    2.2351   -7.3573 N.am      11 UNK        -0.4285 
     65 CA         33.3588    2.3040   -6.0828 C.3       11 UNK         0.1007 
     66 C          33.6886    3.7514   -5.6102 C.2       11 UNK         0.5703 
     67 N          33.0392    4.7876   -6.1289 N.am      11 UNK        -0.7361 
     68 O          34.5554    3.9357   -4.7591 O.2       11 UNK        -0.4986 
     69 C69        32.6540    1.5175   -4.9452 C.3       12 UNK        -0.0947 
     70 S70        32.4893   -0.2659   -5.2764 S.3       12 UNK        -0.2240 
     71 C71        31.5885   -0.7764   -3.7729 C.3       12 UNK         0.0194 
     72 H72        24.1762   -6.2478   -2.4798 H         1 UNK         0.0906 
     73 H73        24.2841   -4.8707   -3.5773 H         1 UNK         0.0906 
     74 H74        25.6215   -6.0158   -3.4683 H         1 UNK         0.0906 
     75 H75        27.2860   -5.5022   -2.0303 H         1 UNK         0.3140 
     76 H76        26.8297   -4.0109    0.4027 H         1 UNK         0.1085 
     77 H77        29.4275   -4.4676    0.6442 H         1 UNK         0.0836 
     78 H78        28.2481   -5.6934    0.8929 H         1 UNK         0.0836 
     79 H79        31.3799   -4.7535   -0.7168 H         1 UNK         0.0731 
     80 H80        31.7366   -6.0342   -1.8482 H         1 UNK         0.0731 
     81 H81        31.8000   -2.7190   -1.8707 H         1 UNK         0.1312 
     82 H82        30.2023   -2.0077   -5.7767 H         1 UNK         0.1406 
     83 H83        29.6846   -5.8330   -3.9289 H         1 UNK         0.1631 
     84 H84        29.5333   -5.3962   -6.5469 H         1 UNK         0.0717 
     85 H85        29.1824   -3.7632   -7.0310 H         1 UNK         0.0717 
     86 H86        25.8065   -3.3398   -4.7290 H         1 UNK         0.0934 
     87 H87        27.4066   -2.7375   -4.5080 H         1 UNK         0.0934 
     88 H88        26.3265   -2.6694   -7.3494 H         1 UNK         0.0739 
     89 H89        24.8479   -1.3522   -5.2572 H         1 UNK         0.3093 
     90 H90        23.3556    1.1001   -7.3426 H         1 UNK         0.0818 
     91 H91        21.2106    0.0203   -6.7197 H         1 UNK         0.0819 
     92 H92        22.0102   -0.9125   -7.9730 H         1 UNK         0.0819 
     93 H93        22.0489   -1.4769   -6.3084 H         1 UNK         0.0819 
     94 H94        22.7524    0.2968   -4.6863 H         1 UNK         0.3041 
     95 H95        24.4735    2.8055   -3.1872 H         1 UNK         0.0784 
     96 H96        22.2028    1.7548   -3.0646 H         1 UNK         0.0793 
     97 H97        22.9297    0.2082   -2.6225 H         1 UNK         0.0793 
     98 H98        23.0737    1.5944   -1.5544 H         1 UNK         0.0793 
     99 H99        26.0819    1.7755   -2.0537 H         1 UNK         0.3024 
    100 H100       28.0189   -0.4730   -2.3773 H         1 UNK         0.1171 
    101 H101       26.4086    0.3820    0.1083 H         1 UNK         0.0786 
    102 H102       27.5208    1.4023   -0.8041 H         1 UNK         0.0786 
    103 H103       28.1358    0.0528    0.1104 H         1 UNK         0.0786 
    104 H104       26.0654   -2.3449   -1.5219 H         1 UNK         0.2977 
    105 H105       26.9636    0.0013   -5.0726 H         1 UNK         0.3127 
    106 H106       29.7024    0.4298   -5.7867 H         1 UNK         0.0770 
    107 H107       28.8270    1.2968   -3.6425 H         1 UNK         0.0814 
    108 H108       27.6673    2.3223   -4.4831 H         1 UNK         0.0814 
    109 H109       29.3827    2.6394   -4.6188 H         1 UNK         0.0814 
    110 H110       26.6459    1.8297   -6.9610 H         1 UNK         0.2983 
    111 H111       27.7744    3.6320   -8.8551 H         1 UNK         0.0947 
    112 H112       25.4789    3.6361   -9.8260 H         1 UNK         0.0806 
    113 H113       25.4119    3.7585   -8.0742 H         1 UNK         0.0806 
    114 H114       25.0458    2.2280   -8.8668 H         1 UNK         0.0806 
    115 H115       26.6954    0.2132   -9.2074 H         1 UNK         0.3000 
    116 H116       27.2561    0.0013  -11.9894 H         1 UNK         0.0850 
    117 H117       27.0120   -2.4568  -11.5733 H         1 UNK         0.0810 
    118 H118       25.7120   -1.5385  -10.8305 H         1 UNK         0.0810 
    119 H119       27.0231   -2.1698   -9.8378 H         1 UNK         0.0810 
    120 H120       29.2060   -0.9843   -9.1197 H         1 UNK         0.3040 
    121 H121       31.4242   -1.9376  -10.7245 H         1 UNK         0.0766 
    122 H122       32.4974   -2.2536   -8.4927 H         1 UNK         0.0812 
    123 H123       30.8672   -2.9077   -8.5055 H         1 UNK         0.0812 
    124 H124       31.1934   -1.3555   -7.7318 H         1 UNK         0.0812 
    125 H125       30.5297    1.1840   -9.5456 H         1 UNK         0.3205 
    126 H126       31.3855    3.2091   -9.5511 H         1 UNK         0.0754 
    127 H127       33.2066    3.8777  -11.0671 H         1 UNK         0.0769 
    128 H128       32.0975    2.8081  -11.9106 H         1 UNK         0.0769 
    129 H129       33.6558    2.2042  -11.3489 H         1 UNK         0.0769 
    130 H130       31.6308    2.0097   -7.3062 H         1 UNK         0.2981 
    131 H131       34.3249    1.8248   -6.2524 H         1 UNK         0.0541 
    132 H132       32.3224    4.6480   -6.8221 H         1 UNK         0.3459 
    133 H133       33.2664    5.7184   -5.8165 H         1 UNK         0.3459 
    134 H134       33.2082    1.6186   -4.0098 H         1 UNK         0.0612 
    135 H135       31.6633    1.9333   -4.7602 H         1 UNK         0.0612 
    136 H136       32.2484   -0.6392   -2.9149 H         1 UNK         0.0624 
    137 H137       30.7375   -0.1153   -3.6153 H         1 UNK         0.0624 
@<TRIPOS>BOND
     1    1    2 1    
     2    1   72 1    
     3    1   73 1    
     4    1   74 1    
     5    2    3 2    
     6    2    4 am   BACKBONE|DICT|INTERRES
     7    4    5 1    
     8    4   75 1    
     9    5    6 1    
    10    5   35 1    
    11    5   76 1    
    12    6    7 1    
    13    6   77 1    
    14    6   78 1    
    15    7    8 1    
    16    8    9 1    
    17    8   79 1    
    18    8   80 1    
    19    9   10 ar   
    20    9   14 ar   
    21   10   11 ar   
    22   10   81 1    
    23   11   12 ar   
    24   11   71 1    
    25   12   13 ar   
    26   12   82 1    
    27   13   14 ar   
    28   13   15 1    
    29   14   83 1    
    30   15   16 1    
    31   15   84 1    
    32   15   85 1    
    33   16   17 1    
    34   17   18 1    
    35   17   86 1    
    36   17   87 1    
    37   18   19 1    
    38   18   37 1    
    39   18   88 1    
    40   19   20 am   BACKBONE|DICT|INTERRES
    41   19   89 1    
    42   20   21 2    
    43   20   22 1    
    44   22   23 1    
    45   22   24 1    
    46   22   90 1    
    47   23   91 1    
    48   23   92 1    
    49   23   93 1    
    50   24   25 am   BACKBONE|DICT|INTERRES
    51   24   94 1    
    52   25   26 2    
    53   25   27 1    
    54   27   28 1    
    55   27   29 1    
    56   27   95 1    
    57   28   96 1    
    58   28   97 1    
    59   28   98 1    
    60   29   30 am   BACKBONE|DICT|INTERRES
    61   29   99 1    
    62   30   31 2    
    63   30   32 1    
    64   32   33 1    
    65   32   34 1    
    66   32  100 1    
    67   33  101 1    
    68   33  102 1    
    69   33  103 1    
    70   34   35 am   BACKBONE|DICT|INTERRES
    71   34  104 1    
    72   35   36 2    
    73   37   38 2    
    74   37   39 am   BACKBONE|DICT|INTERRES
    75   39   40 1    
    76   39  105 1    
    77   40   41 1    
    78   40   42 1    
    79   40  106 1    
    80   41  107 1    
    81   41  108 1    
    82   41  109 1    
    83   42   43 2    
    84   42   44 am   BACKBONE|DICT|INTERRES
    85   44   45 1    
    86   44  110 1    
    87   45   46 1    
    88   45   47 1    
    89   45  111 1    
    90   46  112 1    
    91   46  113 1    
    92   46  114 1    
    93   47   48 2    
    94   47   49 am   BACKBONE|DICT|INTERRES
    95   49   50 1    
    96   49  115 1    
    97   50   51 1    
    98   50   52 1    
    99   50  116 1    
   100   51  117 1    
   101   51  118 1    
   102   51  119 1    
   103   52   53 2    
   104   52   54 am   BACKBONE|DICT|INTERRES
   105   54   55 1    
   106   54  120 1    
   107   55   56 1    
   108   55   57 1    
   109   55  121 1    
   110   56  122 1    
   111   56  123 1    
   112   56  124 1    
   113   57   58 2    
   114   57   59 am   BACKBONE|DICT|INTERRES
   115   59   60 1    
   116   59  125 1    
   117   60   61 1    
   118   60   62 1    
   119   60  126 1    
   120   61  127 1    
   121   61  128 1    
   122   61  129 1    
   123   62   63 2    
   124   62   64 am   BACKBONE|DICT|INTERRES
   125   64   65 1    
   126   64  130 1    
   127   65   66 1    
   128   65   69 1    
   129   65  131 1    
   130   66   67 am   BACKBONE|DICT|INTERRES
   131   66   68 2    
   132   67  132 1    
   133   67  133 1    
   134   69   70 1    
   135   69  134 1    
   136   69  135 1    
   137   70   71 1    
   138   71  136 1    
   139   71  137 1    
@<TRIPOS>SUBSTRUCTURE
     1 UNK         1 GROUP             0       ****    0 ROOT    
