@<TRIPOS>MOLECULE
3R137
137   139    1
SMALL
USER_CHARGES


@<TRIPOS>ATOM
      1 CA         25.5748   -1.0283    1.0112 C.3       0 UNK        -0.2020 
      2 C          26.2744   -1.5217   -0.2455 C.2       0 UNK         0.4855 
      3 O          25.9765   -1.0375   -1.3369 O.2       0 UNK        -0.5197 
      4 N          27.1866   -2.4935   -0.0983 N.am      1 UNK        -0.4892 
      5 CA         28.0413   -3.0657   -1.1528 C.3       1 UNK         0.0835 
      6 C6         28.9897   -4.1561   -0.5890 C.3       12 UNK        -0.0855 
      7 S7         30.0118   -3.5392    0.7980 S.3       12 UNK        -0.2931 
      8 C8         31.6971   -3.5328    0.0957 C.3       12 UNK         0.0378 
      9 C9         31.7867   -2.7644   -1.2163 C.ar      12 UNK        -0.0802 
     10 C10        32.2325   -3.4082   -2.3742 C.ar      12 UNK        -0.0944 
     11 C11        32.2713   -2.7278   -3.5938 C.ar      12 UNK        -0.0787 
     12 C12        31.8505   -1.3959   -3.6554 C.ar      12 UNK        -0.0862 
     13 C13        31.4105   -0.7395   -2.5019 C.ar      12 UNK        -0.0733 
     14 C14        31.4032   -1.4214   -1.2813 C.ar      12 UNK        -0.0832 
     15 C15        30.8930    0.6874   -2.5797 C.3       12 UNK         0.0240 
     16 S16        29.0850    0.6917   -2.4031 S.3       12 UNK        -0.2522 
     17 C17        28.6085    2.1978   -3.3156 C.3       12 UNK        -0.0967 
     18 CA         28.5568    2.0206   -4.8598 C.3       5 UNK         0.0660 
     19 N          28.0562    0.7025   -5.2559 N.am      5 UNK        -0.4015 
     20 C          27.9304    0.2216   -6.4995 C.2       4 UNK         0.4946 
     21 O          28.2246    0.8440   -7.5208 O.2       4 UNK        -0.5353 
     22 CA         27.2959   -1.1719   -6.6173 C.3       4 UNK         0.0277 
     23 CB         28.3816   -2.2558   -6.5496 C.3       4 UNK        -0.1981 
     24 N          26.2721   -1.4311   -5.5961 N.am      4 UNK        -0.4209 
     25 C          25.1672   -0.6906   -5.4013 C.2       3 UNK         0.4942 
     26 O          24.9225    0.3325   -6.0452 O.2       3 UNK        -0.5208 
     27 CA         24.2007   -1.0955   -4.2722 C.3       3 UNK         0.0250 
     28 CB         22.7344   -1.1232   -4.7516 C.3       3 UNK        -0.1990 
     29 N          24.5681   -2.3277   -3.5624 N.am      3 UNK        -0.4232 
     30 C          24.5433   -3.5924   -4.0145 C.2       2 UNK         0.4993 
     31 O          24.1443   -3.9105   -5.1353 O.2       2 UNK        -0.5286 
     32 CA         25.0754   -4.6831   -3.0576 C.3       2 UNK         0.0209 
     33 CB         25.6238   -5.9148   -3.8106 C.3       2 UNK        -0.1931 
     34 N          26.0654   -4.1882   -2.0880 N.am      2 UNK        -0.4546 
     35 C          27.2476   -3.6100   -2.3596 C.2       1 UNK         0.5154 
     36 O          27.6833   -3.4463   -3.4990 O.2       1 UNK        -0.5181 
     37 C          27.7590    3.1819   -5.4908 C.2       5 UNK         0.5014 
     38 O          28.3425    4.2291   -5.7707 O.2       5 UNK        -0.5248 
     39 N          26.4499    2.9762   -5.6938 N.am      6 UNK        -0.4434 
     40 CA         25.5456    3.9342   -6.3254 C.3       6 UNK         0.0363 
     41 CB         24.2032    3.9317   -5.5752 C.3       6 UNK        -0.1936 
     42 C          25.3279    3.6025   -7.8082 C.2       6 UNK         0.5081 
     43 O          25.2692    4.5213   -8.6254 O.2       6 UNK        -0.5248 
     44 N          25.1887    2.3077   -8.1296 N.am      7 UNK        -0.4718 
     45 CA         24.8572    1.8213   -9.4703 C.3       7 UNK         0.0273 
     46 CB         24.4406    0.3441   -9.3898 C.3       7 UNK        -0.1935 
     47 C          25.9779    2.0095  -10.5057 C.2       7 UNK         0.5018 
     48 O          25.6703    2.3023  -11.6625 O.2       7 UNK        -0.5186 
     49 N          27.2390    1.8255  -10.0919 N.am      8 UNK        -0.4240 
     50 CA         28.4050    1.8870  -10.9814 C.3       8 UNK         0.0235 
     51 CB         28.7334    0.4677  -11.4781 C.3       8 UNK        -0.2000 
     52 C          29.6409    2.5481  -10.3499 C.2       8 UNK         0.4941 
     53 O          30.5522    2.9130  -11.0930 O.2       8 UNK        -0.5273 
     54 N          29.6722    2.6741   -9.0145 N.am      9 UNK        -0.4262 
     55 CA         30.7832    3.1609   -8.1831 C.3       9 UNK         0.0264 
     56 CB         31.1992    4.6006   -8.5537 C.3       9 UNK        -0.1955 
     57 C          31.9766    2.1858   -8.1157 C.2       9 UNK         0.5031 
     58 O          33.0574    2.5783   -7.6729 O.2       9 UNK        -0.5390 
     59 N          31.7559    0.9298   -8.5181 N.am      10 UNK        -0.4204 
     60 CA         32.7015   -0.1795   -8.5063 C.3       10 UNK         0.0237 
     61 CB         33.7597   -0.0034   -9.6127 C.3       10 UNK        -0.1985 
     62 C          31.9020   -1.4680   -8.7224 C.2       10 UNK         0.4970 
     63 O          30.8334   -1.4215   -9.3362 O.2       10 UNK        -0.4914 
     64 N          32.4344   -2.5867   -8.2264 N.am      11 UNK        -0.4285 
     65 CA         31.8628   -3.9276   -8.4102 C.3       11 UNK         0.1007 
     66 C          32.3276   -4.5589   -9.7492 C.2       11 UNK         0.5703 
     67 N          31.5111   -5.4164  -10.3462 N.am      11 UNK        -0.7361 
     68 O          33.4305   -4.3079  -10.2332 O.2       11 UNK        -0.4986 
     69 C69        32.1952   -4.8507   -7.2103 C.3       12 UNK        -0.0947 
     70 S70        31.3820   -4.2874   -5.6792 S.3       12 UNK        -0.2240 
     71 C71        32.7546   -3.4375   -4.8467 C.3       12 UNK         0.0194 
     72 H72        25.9234   -1.5469    1.9041 H         1 UNK         0.0906 
     73 H73        25.7570    0.0376    1.1452 H         1 UNK         0.0906 
     74 H74        24.4994   -1.1820    0.9267 H         1 UNK         0.0906 
     75 H75        27.3903   -2.8337    0.8315 H         1 UNK         0.3140 
     76 H76        28.6547   -2.2481   -1.5365 H         1 UNK         0.1085 
     77 H77        29.6385   -4.5453   -1.3762 H         1 UNK         0.0836 
     78 H78        28.4152   -5.0110   -0.2271 H         1 UNK         0.0836 
     79 H79        32.0230   -4.5658   -0.0357 H         1 UNK         0.0731 
     80 H80        32.3805   -3.0846    0.8181 H         1 UNK         0.0731 
     81 H81        32.5355   -4.4457   -2.3336 H         1 UNK         0.1312 
     82 H82        31.8520   -0.8773   -4.6045 H         1 UNK         0.1406 
     83 H83        31.0471   -0.9217   -0.3902 H         1 UNK         0.1631 
     84 H84        31.1762    1.1439   -3.5292 H         1 UNK         0.0717 
     85 H85        31.3402    1.2957   -1.7923 H         1 UNK         0.0717 
     86 H86        27.6293    2.4871   -2.9271 H         1 UNK         0.0934 
     87 H87        29.2857    3.0113   -3.0477 H         1 UNK         0.0934 
     88 H88        29.5778    2.0829   -5.2393 H         1 UNK         0.0739 
     89 H89        27.7986    0.0976   -4.4886 H         1 UNK         0.3093 
     90 H90        26.8120   -1.2347   -7.5925 H         1 UNK         0.0818 
     91 H91        28.9225   -2.2303   -5.6024 H         1 UNK         0.0819 
     92 H92        27.9589   -3.2540   -6.6643 H         1 UNK         0.0819 
     93 H93        29.1153   -2.1225   -7.3447 H         1 UNK         0.0819 
     94 H94        26.4261   -2.2341   -4.9980 H         1 UNK         0.3041 
     95 H95        24.2806   -0.3025   -3.5271 H         1 UNK         0.0784 
     96 H96        22.4284   -0.1449   -5.1249 H         1 UNK         0.0793 
     97 H97        22.5834   -1.8362   -5.5623 H         1 UNK         0.0793 
     98 H98        22.0557   -1.3855   -3.9403 H         1 UNK         0.0793 
     99 H99        24.9783   -2.1616   -2.6471 H         1 UNK         0.3024 
    100 H100       24.2119   -5.0107   -2.4762 H         1 UNK         0.1171 
    101 H101       25.9832   -6.6759   -3.1182 H         1 UNK         0.0786 
    102 H102       24.8490   -6.3778   -4.4230 H         1 UNK         0.0786 
    103 H103       26.4469   -5.6502   -4.4753 H         1 UNK         0.0786 
    104 H104       25.7930   -4.2419   -1.1157 H         1 UNK         0.2977 
    105 H105       26.0602    2.0651   -5.4823 H         1 UNK         0.3127 
    106 H106       25.9627    4.9419   -6.2649 H         1 UNK         0.0770 
    107 H107       23.7284    2.9495   -5.5943 H         1 UNK         0.0814 
    108 H108       23.5052    4.6405   -6.0228 H         1 UNK         0.0814 
    109 H109       24.3330    4.2202   -4.5321 H         1 UNK         0.0814 
    110 H110       25.1996    1.6118   -7.3877 H         1 UNK         0.2983 
    111 H111       23.9947    2.3922   -9.8218 H         1 UNK         0.0947 
    112 H112       24.1304   -0.0279  -10.3673 H         1 UNK         0.0806 
    113 H113       23.6015    0.2040   -8.7080 H         1 UNK         0.0806 
    114 H114       25.2591   -0.2873   -9.0462 H         1 UNK         0.0806 
    115 H115       27.4007    1.5465   -9.1286 H         1 UNK         0.3000 
    116 H116       28.1667    2.5029  -11.8514 H         1 UNK         0.0850 
    117 H117       29.6394    0.4571  -12.0857 H         1 UNK         0.0810 
    118 H118       27.9270    0.0696  -12.0940 H         1 UNK         0.0810 
    119 H119       28.8866   -0.2203  -10.6468 H         1 UNK         0.0810 
    120 H120       28.9235    2.2382   -8.4822 H         1 UNK         0.3040 
    121 H121       30.3905    3.1993   -7.1684 H         1 UNK         0.0766 
    122 H122       30.3357    5.2645   -8.5920 H         1 UNK         0.0812 
    123 H123       31.7044    4.6453   -9.5186 H         1 UNK         0.0812 
    124 H124       31.8869    5.0093   -7.8125 H         1 UNK         0.0812 
    125 H125       30.8314    0.6701   -8.8427 H         1 UNK         0.3205 
    126 H126       33.1859   -0.2197   -7.5284 H         1 UNK         0.0754 
    127 H127       34.4452   -0.8515   -9.6402 H         1 UNK         0.0769 
    128 H128       34.3618    0.8910   -9.4529 H         1 UNK         0.0769 
    129 H129       33.2985    0.0766  -10.5981 H         1 UNK         0.0769 
    130 H130       33.3464   -2.5520   -7.7974 H         1 UNK         0.2981 
    131 H131       30.7756   -3.8346   -8.4604 H         1 UNK         0.0541 
    132 H132       30.6097   -5.6391   -9.9533 H         1 UNK         0.3459 
    133 H133       31.8008   -5.8473  -11.2102 H         1 UNK         0.3459 
    134 H134       31.8435   -5.8663   -7.4011 H         1 UNK         0.0612 
    135 H135       33.2734   -4.9265   -7.0577 H         1 UNK         0.0612 
    136 H136       33.5299   -4.1627   -4.5949 H         1 UNK         0.0624 
    137 H137       33.2115   -2.7178   -5.5262 H         1 UNK         0.0624 
@<TRIPOS>BOND
     1    1    2 1    
     2    1   72 1    
     3    1   73 1    
     4    1   74 1    
     5    2    3 2    
     6    2    4 am   BACKBONE|DICT|INTERRES
     7    4    5 1    
     8    4   75 1    
     9    5    6 1    
    10    5   35 1    
    11    5   76 1    
    12    6    7 1    
    13    6   77 1    
    14    6   78 1    
    15    7    8 1    
    16    8    9 1    
    17    8   79 1    
    18    8   80 1    
    19    9   10 ar   
    20    9   14 ar   
    21   10   11 ar   
    22   10   81 1    
    23   11   12 ar   
    24   11   71 1    
    25   12   13 ar   
    26   12   82 1    
    27   13   14 ar   
    28   13   15 1    
    29   14   83 1    
    30   15   16 1    
    31   15   84 1    
    32   15   85 1    
    33   16   17 1    
    34   17   18 1    
    35   17   86 1    
    36   17   87 1    
    37   18   19 1    
    38   18   37 1    
    39   18   88 1    
    40   19   20 am   BACKBONE|DICT|INTERRES
    41   19   89 1    
    42   20   21 2    
    43   20   22 1    
    44   22   23 1    
    45   22   24 1    
    46   22   90 1    
    47   23   91 1    
    48   23   92 1    
    49   23   93 1    
    50   24   25 am   BACKBONE|DICT|INTERRES
    51   24   94 1    
    52   25   26 2    
    53   25   27 1    
    54   27   28 1    
    55   27   29 1    
    56   27   95 1    
    57   28   96 1    
    58   28   97 1    
    59   28   98 1    
    60   29   30 am   BACKBONE|DICT|INTERRES
    61   29   99 1    
    62   30   31 2    
    63   30   32 1    
    64   32   33 1    
    65   32   34 1    
    66   32  100 1    
    67   33  101 1    
    68   33  102 1    
    69   33  103 1    
    70   34   35 am   BACKBONE|DICT|INTERRES
    71   34  104 1    
    72   35   36 2    
    73   37   38 2    
    74   37   39 am   BACKBONE|DICT|INTERRES
    75   39   40 1    
    76   39  105 1    
    77   40   41 1    
    78   40   42 1    
    79   40  106 1    
    80   41  107 1    
    81   41  108 1    
    82   41  109 1    
    83   42   43 2    
    84   42   44 am   BACKBONE|DICT|INTERRES
    85   44   45 1    
    86   44  110 1    
    87   45   46 1    
    88   45   47 1    
    89   45  111 1    
    90   46  112 1    
    91   46  113 1    
    92   46  114 1    
    93   47   48 2    
    94   47   49 am   BACKBONE|DICT|INTERRES
    95   49   50 1    
    96   49  115 1    
    97   50   51 1    
    98   50   52 1    
    99   50  116 1    
   100   51  117 1    
   101   51  118 1    
   102   51  119 1    
   103   52   53 2    
   104   52   54 am   BACKBONE|DICT|INTERRES
   105   54   55 1    
   106   54  120 1    
   107   55   56 1    
   108   55   57 1    
   109   55  121 1    
   110   56  122 1    
   111   56  123 1    
   112   56  124 1    
   113   57   58 2    
   114   57   59 am   BACKBONE|DICT|INTERRES
   115   59   60 1    
   116   59  125 1    
   117   60   61 1    
   118   60   62 1    
   119   60  126 1    
   120   61  127 1    
   121   61  128 1    
   122   61  129 1    
   123   62   63 2    
   124   62   64 am   BACKBONE|DICT|INTERRES
   125   64   65 1    
   126   64  130 1    
   127   65   66 1    
   128   65   69 1    
   129   65  131 1    
   130   66   67 am   BACKBONE|DICT|INTERRES
   131   66   68 2    
   132   67  132 1    
   133   67  133 1    
   134   69   70 1    
   135   69  134 1    
   136   69  135 1    
   137   70   71 1    
   138   71  136 1    
   139   71  137 1    
@<TRIPOS>SUBSTRUCTURE
     1 UNK         1 GROUP             0       ****    0 ROOT    
