@<TRIPOS>MOLECULE
3R137
137   139    1
SMALL
USER_CHARGES


@<TRIPOS>ATOM
      1 CA         31.1323    0.2899   -3.2875 C.3       0 UNK        -0.2020 
      2 C          30.1795   -0.0399   -2.1480 C.2       0 UNK         0.4855 
      3 O          29.8598    0.8414   -1.3507 O.2       0 UNK        -0.5197 
      4 N          29.7404   -1.3037   -2.0687 N.am      1 UNK        -0.4892 
      5 CA         28.9004   -1.8808   -1.0075 C.3       1 UNK         0.0835 
      6 C6         29.6210   -2.0032    0.3642 C.3       12 UNK        -0.0855 
      7 S7         31.2997   -2.7373    0.2992 S.3       12 UNK        -0.2931 
      8 C8         31.0376   -4.4132   -0.3822 C.3       12 UNK         0.0378 
      9 C9         30.8560   -4.4122   -1.8973 C.ar      12 UNK        -0.0802 
     10 C10        31.8440   -3.8749   -2.7308 C.ar      12 UNK        -0.0944 
     11 C11        31.6655   -3.8316   -4.1176 C.ar      12 UNK        -0.0787 
     12 C12        30.4804   -4.3340   -4.6677 C.ar      12 UNK        -0.0862 
     13 C13        29.4895   -4.8822   -3.8477 C.ar      12 UNK        -0.0733 
     14 C14        29.6941   -4.9425   -2.4675 C.ar      12 UNK        -0.0832 
     15 C15        28.2028   -5.4188   -4.4538 C.3       12 UNK         0.0240 
     16 S16        26.7914   -4.3103   -4.1322 S.3       12 UNK        -0.2522 
     17 C17        25.6250   -4.8993   -5.4163 C.3       12 UNK        -0.0967 
     18 CA         25.4484   -3.9946   -6.6716 C.3       5 UNK         0.0660 
     19 N          24.4992   -2.8983   -6.4453 N.am      5 UNK        -0.4015 
     20 C          23.5988   -2.4932   -7.3546 C.2       4 UNK         0.4946 
     21 O          23.4746   -3.0028   -8.4692 O.2       4 UNK        -0.5353 
     22 CA         22.6629   -1.3337   -6.9695 C.3       4 UNK         0.0277 
     23 CB         21.4181   -1.8683   -6.2424 C.3       4 UNK        -0.1981 
     24 N          23.3038   -0.3102   -6.1453 N.am      4 UNK        -0.4209 
     25 C          24.2599    0.5252   -6.5727 C.2       3 UNK         0.4942 
     26 O          24.6929    0.5492   -7.7254 O.2       3 UNK        -0.5208 
     27 CA         24.8617    1.4836   -5.5294 C.3       3 UNK         0.0250 
     28 CB         24.1013    2.8195   -5.5299 C.3       3 UNK        -0.1990 
     29 N          24.9155    0.9562   -4.1589 N.am      3 UNK        -0.4232 
     30 C          25.5061   -0.1909   -3.7999 C.2       2 UNK         0.4993 
     31 O          25.9793   -0.9997   -4.6026 O.2       2 UNK        -0.5286 
     32 CA         25.5588   -0.5158   -2.3079 C.3       2 UNK         0.0209 
     33 CB         24.3974   -1.4417   -1.9068 C.3       2 UNK        -0.1931 
     34 N          26.8332   -1.1800   -2.0756 N.am      2 UNK        -0.4546 
     35 C          27.5184   -1.2023   -0.9291 C.2       1 UNK         0.5154 
     36 O          27.1093   -0.7131    0.1263 O.2       1 UNK        -0.5181 
     37 C          26.7765   -3.4632   -7.2474 C.2       5 UNK         0.5014 
     38 O          27.3808   -4.1221   -8.0944 O.2       5 UNK        -0.5248 
     39 N          27.2029   -2.2847   -6.7746 N.am      6 UNK        -0.4434 
     40 CA         28.4867   -1.6593   -7.0809 C.3       6 UNK         0.0363 
     41 CB         28.9253   -0.8525   -5.8492 C.3       6 UNK        -0.1936 
     42 C          28.4652   -0.7790   -8.3419 C.2       6 UNK         0.5081 
     43 O          29.4643   -0.1109   -8.6075 O.2       6 UNK        -0.5248 
     44 N          27.3410   -0.7631   -9.0749 N.am      7 UNK        -0.4718 
     45 CA         27.0997   -0.0280  -10.3244 C.3       7 UNK         0.0273 
     46 CB         27.9504   -0.6192  -11.4690 C.3       7 UNK        -0.1935 
     47 C          27.2995    1.4890  -10.1538 C.2       7 UNK         0.5018 
     48 O          28.1559    2.0808  -10.8122 O.2       7 UNK        -0.5186 
     49 N          26.5238    2.0714   -9.2282 N.am      8 UNK        -0.4240 
     50 CA         26.5959    3.4642   -8.7659 C.3       8 UNK         0.0235 
     51 CB         26.2567    4.4560   -9.8998 C.3       8 UNK        -0.2000 
     52 C          27.9256    3.7823   -8.0522 C.2       8 UNK         0.4941 
     53 O          28.4581    4.8834   -8.2002 O.2       8 UNK        -0.5273 
     54 N          28.4182    2.8023   -7.2783 N.am      9 UNK        -0.4262 
     55 CA         29.6492    2.8262   -6.4795 C.3       9 UNK         0.0264 
     56 CB         29.5562    3.8671   -5.3434 C.3       9 UNK        -0.1955 
     57 C          30.9292    2.9604   -7.3269 C.2       9 UNK         0.5031 
     58 O          31.8748    3.6301   -6.9070 O.2       9 UNK        -0.5390 
     59 N          30.9599    2.2907   -8.4880 N.am      10 UNK        -0.4204 
     60 CA         32.1048    2.2573   -9.4021 C.3       10 UNK         0.0237 
     61 CB         31.6835    1.6135  -10.7327 C.3       10 UNK        -0.1985 
     62 C          33.3202    1.5269   -8.8078 C.2       10 UNK         0.4970 
     63 O          34.4515    1.9525   -9.0436 O.2       10 UNK        -0.4914 
     64 N          33.0635    0.4651   -8.0331 N.am      11 UNK        -0.4285 
     65 CA         34.0739   -0.2732   -7.2601 C.3       11 UNK         0.1007 
     66 C          34.4109    0.3546   -5.8734 C.2       11 UNK         0.5703 
     67 N          33.8560    1.5039   -5.5018 N.am      11 UNK        -0.7361 
     68 O          35.2090   -0.2034   -5.1243 O.2       11 UNK        -0.4986 
     69 C69        33.7399   -1.7870   -7.1870 C.3       12 UNK        -0.0947 
     70 S70        32.1821   -2.1698   -6.3183 S.3       12 UNK        -0.2240 
     71 C71        32.7793   -3.2868   -5.0084 C.3       12 UNK         0.0194 
     72 H72        30.7019    1.0572   -3.9289 H         1 UNK         0.0906 
     73 H73        31.3567   -0.5838   -3.8979 H         1 UNK         0.0906 
     74 H74        32.0734    0.6693   -2.8905 H         1 UNK         0.0906 
     75 H75        30.0729   -1.9777   -2.7454 H         1 UNK         0.3140 
     76 H76        28.6560   -2.8910   -1.3217 H         1 UNK         0.1085 
     77 H77        29.7206   -1.0162    0.8197 H         1 UNK         0.0836 
     78 H78        29.0164   -2.5923    1.0562 H         1 UNK         0.0836 
     79 H79        30.1865   -4.8758    0.1200 H         1 UNK         0.0731 
     80 H80        31.9063   -5.0268   -0.1397 H         1 UNK         0.0731 
     81 H81        32.7523   -3.4842   -2.2920 H         1 UNK         0.1312 
     82 H82        30.3323   -4.3054   -5.7386 H         1 UNK         0.1406 
     83 H83        28.9272   -5.3719   -1.8364 H         1 UNK         0.1631 
     84 H84        27.9854   -6.4074   -4.0468 H         1 UNK         0.0717 
     85 H85        28.3266   -5.5490   -5.5301 H         1 UNK         0.0717 
     86 H86        25.9399   -5.8933   -5.7388 H         1 UNK         0.0934 
     87 H87        24.6564   -5.0606   -4.9405 H         1 UNK         0.0934 
     88 H88        25.0313   -4.6465   -7.4427 H         1 UNK         0.0739 
     89 H89        24.5958   -2.3893   -5.5754 H         1 UNK         0.3093 
     90 H90        22.3355   -0.8570   -7.8963 H         1 UNK         0.0818 
     91 H91        20.9057   -2.6182   -6.8469 H         1 UNK         0.0819 
     92 H92        21.6733   -2.3363   -5.2907 H         1 UNK         0.0819 
     93 H93        20.7012   -1.0713   -6.0441 H         1 UNK         0.0819 
     94 H94        23.0134   -0.2484   -5.1805 H         1 UNK         0.3041 
     95 H95        25.8909    1.6779   -5.8367 H         1 UNK         0.0784 
     96 H96        23.9998    3.2196   -6.5393 H         1 UNK         0.0793 
     97 H97        23.0938    2.7094   -5.1266 H         1 UNK         0.0793 
     98 H98        24.6205    3.5719   -4.9359 H         1 UNK         0.0793 
     99 H99        24.5306    1.5496   -3.4375 H         1 UNK         0.3024 
    100 H100       25.5189    0.4110   -1.7308 H         1 UNK         0.1171 
    101 H101       23.4336   -0.9667   -2.0934 H         1 UNK         0.0786 
    102 H102       24.4176   -2.3775   -2.4677 H         1 UNK         0.0786 
    103 H103       24.4362   -1.6888   -0.8457 H         1 UNK         0.0786 
    104 H104       27.2399   -1.5815   -2.9124 H         1 UNK         0.2977 
    105 H105       26.6598   -1.8310   -6.0406 H         1 UNK         0.3127 
    106 H106       29.2286   -2.4413   -7.2538 H         1 UNK         0.0770 
    107 H107       28.2370   -0.0360   -5.6319 H         1 UNK         0.0814 
    108 H108       29.9140   -0.4219   -5.9975 H         1 UNK         0.0814 
    109 H109       28.9812   -1.4888   -4.9662 H         1 UNK         0.0814 
    110 H110       26.5621   -1.3065   -8.7295 H         1 UNK         0.2983 
    111 H111       26.0492   -0.1770  -10.5805 H         1 UNK         0.0947 
    112 H112       29.0185   -0.4927  -11.2889 H         1 UNK         0.0806 
    113 H113       27.7216   -0.1305  -12.4168 H         1 UNK         0.0806 
    114 H114       27.7565   -1.6840  -11.5975 H         1 UNK         0.0806 
    115 H115       25.8469    1.4813   -8.7426 H         1 UNK         0.3000 
    116 H116       25.8212    3.5690   -8.0067 H         1 UNK         0.0850 
    117 H117       26.1635    5.4717   -9.5135 H         1 UNK         0.0810 
    118 H118       25.3101    4.2041  -10.3776 H         1 UNK         0.0810 
    119 H119       27.0282    4.4741  -10.6699 H         1 UNK         0.0810 
    120 H120       27.9173    1.9263   -7.2795 H         1 UNK         0.3040 
    121 H121       29.7193    1.8510   -6.0045 H         1 UNK         0.0766 
    122 H122       29.5453    4.8873   -5.7281 H         1 UNK         0.0812 
    123 H123       30.4085    3.7855   -4.6677 H         1 UNK         0.0812 
    124 H124       28.6564    3.7231   -4.7453 H         1 UNK         0.0812 
    125 H125       30.1830    1.6748   -8.7179 H         1 UNK         0.3205 
    126 H126       32.4031    3.2887   -9.6012 H         1 UNK         0.0754 
    127 H127       32.5171    1.5842  -11.4357 H         1 UNK         0.0769 
    128 H128       30.8800    2.1771  -11.2069 H         1 UNK         0.0769 
    129 H129       31.3349    0.5892  -10.5937 H         1 UNK         0.0769 
    130 H130       32.1046    0.1756   -7.9000 H         1 UNK         0.2981 
    131 H131       35.0124   -0.2105   -7.8137 H         1 UNK         0.0541 
    132 H132       33.2415    2.0147   -6.1196 H         1 UNK         0.3459 
    133 H133       34.1035    1.8951   -4.6075 H         1 UNK         0.3459 
    134 H134       34.5647   -2.3324   -6.7251 H         1 UNK         0.0612 
    135 H135       33.6592   -2.1895   -8.1977 H         1 UNK         0.0612 
    136 H136       33.5183   -2.7498   -4.4113 H         1 UNK         0.0624 
    137 H137       33.2977   -4.1291   -5.4682 H         1 UNK         0.0624 
@<TRIPOS>BOND
     1    1    2 1    
     2    1   72 1    
     3    1   73 1    
     4    1   74 1    
     5    2    3 2    
     6    2    4 am   BACKBONE|DICT|INTERRES
     7    4    5 1    
     8    4   75 1    
     9    5    6 1    
    10    5   35 1    
    11    5   76 1    
    12    6    7 1    
    13    6   77 1    
    14    6   78 1    
    15    7    8 1    
    16    8    9 1    
    17    8   79 1    
    18    8   80 1    
    19    9   10 ar   
    20    9   14 ar   
    21   10   11 ar   
    22   10   81 1    
    23   11   12 ar   
    24   11   71 1    
    25   12   13 ar   
    26   12   82 1    
    27   13   14 ar   
    28   13   15 1    
    29   14   83 1    
    30   15   16 1    
    31   15   84 1    
    32   15   85 1    
    33   16   17 1    
    34   17   18 1    
    35   17   86 1    
    36   17   87 1    
    37   18   19 1    
    38   18   37 1    
    39   18   88 1    
    40   19   20 am   BACKBONE|DICT|INTERRES
    41   19   89 1    
    42   20   21 2    
    43   20   22 1    
    44   22   23 1    
    45   22   24 1    
    46   22   90 1    
    47   23   91 1    
    48   23   92 1    
    49   23   93 1    
    50   24   25 am   BACKBONE|DICT|INTERRES
    51   24   94 1    
    52   25   26 2    
    53   25   27 1    
    54   27   28 1    
    55   27   29 1    
    56   27   95 1    
    57   28   96 1    
    58   28   97 1    
    59   28   98 1    
    60   29   30 am   BACKBONE|DICT|INTERRES
    61   29   99 1    
    62   30   31 2    
    63   30   32 1    
    64   32   33 1    
    65   32   34 1    
    66   32  100 1    
    67   33  101 1    
    68   33  102 1    
    69   33  103 1    
    70   34   35 am   BACKBONE|DICT|INTERRES
    71   34  104 1    
    72   35   36 2    
    73   37   38 2    
    74   37   39 am   BACKBONE|DICT|INTERRES
    75   39   40 1    
    76   39  105 1    
    77   40   41 1    
    78   40   42 1    
    79   40  106 1    
    80   41  107 1    
    81   41  108 1    
    82   41  109 1    
    83   42   43 2    
    84   42   44 am   BACKBONE|DICT|INTERRES
    85   44   45 1    
    86   44  110 1    
    87   45   46 1    
    88   45   47 1    
    89   45  111 1    
    90   46  112 1    
    91   46  113 1    
    92   46  114 1    
    93   47   48 2    
    94   47   49 am   BACKBONE|DICT|INTERRES
    95   49   50 1    
    96   49  115 1    
    97   50   51 1    
    98   50   52 1    
    99   50  116 1    
   100   51  117 1    
   101   51  118 1    
   102   51  119 1    
   103   52   53 2    
   104   52   54 am   BACKBONE|DICT|INTERRES
   105   54   55 1    
   106   54  120 1    
   107   55   56 1    
   108   55   57 1    
   109   55  121 1    
   110   56  122 1    
   111   56  123 1    
   112   56  124 1    
   113   57   58 2    
   114   57   59 am   BACKBONE|DICT|INTERRES
   115   59   60 1    
   116   59  125 1    
   117   60   61 1    
   118   60   62 1    
   119   60  126 1    
   120   61  127 1    
   121   61  128 1    
   122   61  129 1    
   123   62   63 2    
   124   62   64 am   BACKBONE|DICT|INTERRES
   125   64   65 1    
   126   64  130 1    
   127   65   66 1    
   128   65   69 1    
   129   65  131 1    
   130   66   67 am   BACKBONE|DICT|INTERRES
   131   66   68 2    
   132   67  132 1    
   133   67  133 1    
   134   69   70 1    
   135   69  134 1    
   136   69  135 1    
   137   70   71 1    
   138   71  136 1    
   139   71  137 1    
@<TRIPOS>SUBSTRUCTURE
     1 UNK         1 GROUP             0       ****    0 ROOT    
