@<TRIPOS>MOLECULE
3R137
137   139    1
SMALL
USER_CHARGES


@<TRIPOS>ATOM
      1 CA         25.3435   -4.9306   -2.1942 C.3       0 UNK        -0.2020 
      2 C          25.9662   -3.8560   -3.0793 C.2       0 UNK         0.4855 
      3 O          25.7997   -3.9129   -4.2958 O.2       0 UNK        -0.5197 
      4 N          26.6683   -2.8553   -2.5339 N.am      1 UNK        -0.4892 
      5 CA         27.0360   -2.6682   -1.1283 C.3       1 UNK         0.0835 
      6 C6         28.5121   -3.0586   -0.8490 C.3       12 UNK        -0.0855 
      7 S7         28.8138   -4.8485   -1.0111 S.3       12 UNK        -0.2931 
      8 C8         30.5634   -4.8851   -1.5068 C.3       12 UNK         0.0378 
      9 C9         30.7848   -4.4094   -2.9373 C.ar      12 UNK        -0.0802 
     10 C10        31.5036   -3.2384   -3.1867 C.ar      12 UNK        -0.0944 
     11 C11        31.7966   -2.8356   -4.4933 C.ar      12 UNK        -0.0787 
     12 C12        31.3421   -3.6229   -5.5642 C.ar      12 UNK        -0.0862 
     13 C13        30.6103   -4.7950   -5.3294 C.ar      12 UNK        -0.0733 
     14 C14        30.3329   -5.1769   -4.0130 C.ar      12 UNK        -0.0832 
     15 C15        30.1848   -5.7091   -6.4772 C.3       12 UNK         0.0240 
     16 S16        29.2240   -4.8861   -7.7893 S.3       12 UNK        -0.2522 
     17 C17        27.7384   -4.3106   -6.8947 C.3       12 UNK        -0.0967 
     18 CA         27.2193   -2.9517   -7.4284 C.3       5 UNK         0.0660 
     19 N          25.8831   -2.6286   -6.9147 N.am      5 UNK        -0.4015 
     20 C          25.1437   -1.5895   -7.3343 C.2       4 UNK         0.4946 
     21 O          25.5073   -0.8059   -8.2109 O.2       4 UNK        -0.5353 
     22 CA         23.7909   -1.3273   -6.6491 C.3       4 UNK         0.0277 
     23 CB         23.1763   -2.5595   -5.9528 C.3       4 UNK        -0.1981 
     24 N          23.8398   -0.1871   -5.7247 N.am      4 UNK        -0.4209 
     25 C          24.7097    0.0056   -4.7218 C.2       3 UNK         0.4942 
     26 O          25.6678   -0.7348   -4.4877 O.2       3 UNK        -0.5208 
     27 CA         24.4674    1.1971   -3.7856 C.3       3 UNK         0.0250 
     28 CB         23.0961    1.8878   -3.9565 C.3       3 UNK        -0.1990 
     29 N          24.6183    0.6706   -2.4360 N.am      3 UNK        -0.4232 
     30 C          24.8997    1.3517   -1.3222 C.2       2 UNK         0.4993 
     31 O          24.9848    2.5788   -1.2641 O.2       2 UNK        -0.5286 
     32 CA         25.1318    0.5091   -0.0528 C.3       2 UNK         0.0209 
     33 CB         23.8574    0.4710    0.8069 C.3       2 UNK        -0.1931 
     34 N          25.5627   -0.8678   -0.3405 N.am      2 UNK        -0.4546 
     35 C          26.7808   -1.1880   -0.8010 C.2       1 UNK         0.5154 
     36 O          27.6663   -0.3569   -1.0057 O.2       1 UNK        -0.5181 
     37 C          28.2272   -1.8168   -7.1621 C.2       5 UNK         0.5014 
     38 O          28.9920   -1.4653   -8.0607 O.2       5 UNK        -0.5248 
     39 N          28.1732   -1.2294   -5.9588 N.am      6 UNK        -0.4434 
     40 CA         29.0533   -0.1375   -5.5446 C.3       6 UNK         0.0363 
     41 CB         28.9096    0.0975   -4.0347 C.3       6 UNK        -0.1936 
     42 C          28.8104    1.1548   -6.3389 C.2       6 UNK         0.5081 
     43 O          29.7566    1.9098   -6.5684 O.2       6 UNK        -0.5248 
     44 N          27.5601    1.3671   -6.7697 N.am      7 UNK        -0.4718 
     45 CA         27.1701    2.4575   -7.6586 C.3       7 UNK         0.0273 
     46 CB         25.6606    2.7201   -7.5258 C.3       7 UNK        -0.1935 
     47 C          27.5602    2.1587   -9.1146 C.2       7 UNK         0.5018 
     48 O          28.1852    3.0049   -9.7530 O.2       7 UNK        -0.5186 
     49 N          27.2025    0.9627   -9.6067 N.am      8 UNK        -0.4240 
     50 CA         27.4247    0.5167  -10.9856 C.3       8 UNK         0.0235 
     51 CB         26.7080   -0.8228  -11.2203 C.3       8 UNK        -0.2000 
     52 C          28.9072    0.4074  -11.3724 C.2       8 UNK         0.4941 
     53 O          29.2803    0.8642  -12.4536 O.2       8 UNK        -0.5273 
     54 N          29.7268   -0.1758  -10.4872 N.am      9 UNK        -0.4262 
     55 CA         31.1755   -0.3001  -10.6725 C.3       9 UNK         0.0264 
     56 CB         31.6756   -1.5438   -9.9198 C.3       9 UNK        -0.1955 
     57 C          31.9501    0.9608  -10.2433 C.2       9 UNK         0.5031 
     58 O          33.1564    1.0205  -10.4865 O.2       9 UNK        -0.5390 
     59 N          31.2578    1.9356   -9.6300 N.am      10 UNK        -0.4204 
     60 CA         31.7666    3.2128   -9.1156 C.3       10 UNK         0.0237 
     61 CB         32.1833    4.1403  -10.2770 C.3       10 UNK        -0.1985 
     62 C          32.8754    3.0177   -8.0643 C.2       10 UNK         0.4970 
     63 O          33.9643    3.5811   -8.1958 O.2       10 UNK        -0.4914 
     64 N          32.5683    2.2052   -7.0493 N.am      11 UNK        -0.4285 
     65 CA         33.4679    1.8286   -5.9498 C.3       11 UNK         0.1007 
     66 C          32.8726    2.0794   -4.5364 C.2       11 UNK         0.5703 
     67 N          31.6374    2.5471   -4.4034 N.am      11 UNK        -0.7361 
     68 O          33.5585    1.8778   -3.5372 O.2       11 UNK        -0.4986 
     69 C69        34.0410    0.3953   -6.1305 C.3       12 UNK        -0.0947 
     70 S70        32.7854   -0.9129   -6.3562 S.3       12 UNK        -0.2240 
     71 C71        32.6611   -1.5832   -4.6654 C.3       12 UNK         0.0194 
     72 H72        26.1018   -5.4741   -1.6344 H         1 UNK         0.0906 
     73 H73        24.6330   -4.4920   -1.4946 H         1 UNK         0.0906 
     74 H74        24.8025   -5.6549   -2.8027 H         1 UNK         0.0906 
     75 H75        26.9517   -2.0973   -3.1405 H         1 UNK         0.3140 
     76 H76        26.3986   -3.2596   -0.4696 H         1 UNK         0.1085 
     77 H77        29.1797   -2.5177   -1.5221 H         1 UNK         0.0836 
     78 H78        28.8011   -2.7686    0.1632 H         1 UNK         0.0836 
     79 H79        30.9294   -5.9088   -1.4164 H         1 UNK         0.0731 
     80 H80        31.1477   -4.2924   -0.8010 H         1 UNK         0.0731 
     81 H81        31.8682   -2.6506   -2.3550 H         1 UNK         0.1312 
     82 H82        31.5707   -3.3484   -6.5842 H         1 UNK         0.1406 
     83 H83        29.7893   -6.0914   -3.8170 H         1 UNK         0.1631 
     84 H84        29.5996   -6.5518   -6.1056 H         1 UNK         0.0717 
     85 H85        31.0818   -6.1380   -6.9256 H         1 UNK         0.0717 
     86 H86        26.9682   -5.0753   -7.0058 H         1 UNK         0.0934 
     87 H87        27.9472   -4.2484   -5.8253 H         1 UNK         0.0934 
     88 H88        27.1167   -3.0395   -8.5120 H         1 UNK         0.0739 
     89 H89        25.5780   -3.1518   -6.0973 H         1 UNK         0.3093 
     90 H90        23.1106   -1.0435   -7.4538 H         1 UNK         0.0818 
     91 H91        22.1219   -2.3910   -5.7337 H         1 UNK         0.0819 
     92 H92        23.2312   -3.4483   -6.5829 H         1 UNK         0.0819 
     93 H93        23.6650   -2.7856   -5.0072 H         1 UNK         0.0819 
     94 H94        23.1047    0.4956   -5.8423 H         1 UNK         0.3041 
     95 H95        25.2621    1.9223   -3.9723 H         1 UNK         0.0784 
     96 H96        22.9754    2.7033   -3.2432 H         1 UNK         0.0793 
     97 H97        22.9911    2.3255   -4.9499 H         1 UNK         0.0793 
     98 H98        22.2687    1.1938   -3.8016 H         1 UNK         0.0793 
     99 H99        24.6410   -0.3391   -2.3891 H         1 UNK         0.3024 
    100 H100       25.9191    1.0035    0.5216 H         1 UNK         0.1171 
    101 H101       23.5275    1.4799    1.0595 H         1 UNK         0.0786 
    102 H102       23.0333   -0.0203    0.2880 H         1 UNK         0.0786 
    103 H103       24.0271   -0.0562    1.7459 H         1 UNK         0.0786 
    104 H104       24.8786   -1.5976   -0.1988 H         1 UNK         0.2977 
    105 H105       27.4227   -1.4825   -5.3258 H         1 UNK         0.3127 
    106 H106       30.0771   -0.4522   -5.7400 H         1 UNK         0.0770 
    107 H107       27.9104    0.4410   -3.7664 H         1 UNK         0.0814 
    108 H108       29.6121    0.8535   -3.6867 H         1 UNK         0.0814 
    109 H109       29.1174   -0.8123   -3.4716 H         1 UNK         0.0814 
    110 H110       26.8655    0.6602   -6.5739 H         1 UNK         0.2983 
    111 H111       27.6976    3.3639   -7.3517 H         1 UNK         0.0947 
    112 H112       25.3508    3.5392   -8.1762 H         1 UNK         0.0806 
    113 H113       25.3964    3.0006   -6.5062 H         1 UNK         0.0806 
    114 H114       25.0666    1.8471   -7.7978 H         1 UNK         0.0806 
    115 H115       26.6690    0.3285   -9.0130 H         1 UNK         0.3000 
    116 H116       26.9707    1.2613  -11.6429 H         1 UNK         0.0850 
    117 H117       26.8437   -1.1660  -12.2468 H         1 UNK         0.0810 
    118 H118       25.6353   -0.7336  -11.0474 H         1 UNK         0.0810 
    119 H119       27.0884   -1.6033  -10.5604 H         1 UNK         0.0810 
    120 H120       29.3469   -0.5590   -9.6208 H         1 UNK         0.3040 
    121 H121       31.3848   -0.4537  -11.7333 H         1 UNK         0.0766 
    122 H122       31.4858   -1.4670   -8.8507 H         1 UNK         0.0812 
    123 H123       32.7496   -1.6808  -10.0513 H         1 UNK         0.0812 
    124 H124       31.1850   -2.4488  -10.2783 H         1 UNK         0.0812 
    125 H125       30.2670    1.7843   -9.4962 H         1 UNK         0.3205 
    126 H126       30.9317    3.6885   -8.5983 H         1 UNK         0.0754 
    127 H127       32.4717    5.1246   -9.9061 H         1 UNK         0.0769 
    128 H128       31.3619    4.2864  -10.9786 H         1 UNK         0.0769 
    129 H129       33.0320    3.7400  -10.8327 H         1 UNK         0.0769 
    130 H130       31.6242    1.8342   -6.9920 H         1 UNK         0.2981 
    131 H131       34.3266    2.5015   -5.9720 H         1 UNK         0.0541 
    132 H132       31.0356    2.6637   -5.2091 H         1 UNK         0.3459 
    133 H133       31.2832    2.7315   -3.4791 H         1 UNK         0.3459 
    134 H134       34.7054    0.1327   -5.3056 H         1 UNK         0.0612 
    135 H135       34.6718    0.3817   -7.0205 H         1 UNK         0.0612 
    136 H136       32.2734   -0.7960   -4.0174 H         1 UNK         0.0624 
    137 H137       33.6659   -1.8153   -4.3101 H         1 UNK         0.0624 
@<TRIPOS>BOND
     1    1    2 1    
     2    1   72 1    
     3    1   73 1    
     4    1   74 1    
     5    2    3 2    
     6    2    4 am   BACKBONE|DICT|INTERRES
     7    4    5 1    
     8    4   75 1    
     9    5    6 1    
    10    5   35 1    
    11    5   76 1    
    12    6    7 1    
    13    6   77 1    
    14    6   78 1    
    15    7    8 1    
    16    8    9 1    
    17    8   79 1    
    18    8   80 1    
    19    9   10 ar   
    20    9   14 ar   
    21   10   11 ar   
    22   10   81 1    
    23   11   12 ar   
    24   11   71 1    
    25   12   13 ar   
    26   12   82 1    
    27   13   14 ar   
    28   13   15 1    
    29   14   83 1    
    30   15   16 1    
    31   15   84 1    
    32   15   85 1    
    33   16   17 1    
    34   17   18 1    
    35   17   86 1    
    36   17   87 1    
    37   18   19 1    
    38   18   37 1    
    39   18   88 1    
    40   19   20 am   BACKBONE|DICT|INTERRES
    41   19   89 1    
    42   20   21 2    
    43   20   22 1    
    44   22   23 1    
    45   22   24 1    
    46   22   90 1    
    47   23   91 1    
    48   23   92 1    
    49   23   93 1    
    50   24   25 am   BACKBONE|DICT|INTERRES
    51   24   94 1    
    52   25   26 2    
    53   25   27 1    
    54   27   28 1    
    55   27   29 1    
    56   27   95 1    
    57   28   96 1    
    58   28   97 1    
    59   28   98 1    
    60   29   30 am   BACKBONE|DICT|INTERRES
    61   29   99 1    
    62   30   31 2    
    63   30   32 1    
    64   32   33 1    
    65   32   34 1    
    66   32  100 1    
    67   33  101 1    
    68   33  102 1    
    69   33  103 1    
    70   34   35 am   BACKBONE|DICT|INTERRES
    71   34  104 1    
    72   35   36 2    
    73   37   38 2    
    74   37   39 am   BACKBONE|DICT|INTERRES
    75   39   40 1    
    76   39  105 1    
    77   40   41 1    
    78   40   42 1    
    79   40  106 1    
    80   41  107 1    
    81   41  108 1    
    82   41  109 1    
    83   42   43 2    
    84   42   44 am   BACKBONE|DICT|INTERRES
    85   44   45 1    
    86   44  110 1    
    87   45   46 1    
    88   45   47 1    
    89   45  111 1    
    90   46  112 1    
    91   46  113 1    
    92   46  114 1    
    93   47   48 2    
    94   47   49 am   BACKBONE|DICT|INTERRES
    95   49   50 1    
    96   49  115 1    
    97   50   51 1    
    98   50   52 1    
    99   50  116 1    
   100   51  117 1    
   101   51  118 1    
   102   51  119 1    
   103   52   53 2    
   104   52   54 am   BACKBONE|DICT|INTERRES
   105   54   55 1    
   106   54  120 1    
   107   55   56 1    
   108   55   57 1    
   109   55  121 1    
   110   56  122 1    
   111   56  123 1    
   112   56  124 1    
   113   57   58 2    
   114   57   59 am   BACKBONE|DICT|INTERRES
   115   59   60 1    
   116   59  125 1    
   117   60   61 1    
   118   60   62 1    
   119   60  126 1    
   120   61  127 1    
   121   61  128 1    
   122   61  129 1    
   123   62   63 2    
   124   62   64 am   BACKBONE|DICT|INTERRES
   125   64   65 1    
   126   64  130 1    
   127   65   66 1    
   128   65   69 1    
   129   65  131 1    
   130   66   67 am   BACKBONE|DICT|INTERRES
   131   66   68 2    
   132   67  132 1    
   133   67  133 1    
   134   69   70 1    
   135   69  134 1    
   136   69  135 1    
   137   70   71 1    
   138   71  136 1    
   139   71  137 1    
@<TRIPOS>SUBSTRUCTURE
     1 UNK         1 GROUP             0       ****    0 ROOT    
