@<TRIPOS>MOLECULE
3R137
137   139    1
SMALL
USER_CHARGES


@<TRIPOS>ATOM
      1 CA         26.3391   -6.1322   -5.5164 C.3       0 UNK        -0.2020 
      2 C          26.4336   -5.4050   -4.1840 C.2       0 UNK         0.4855 
      3 O          25.4069   -5.1464   -3.5552 O.2       0 UNK        -0.5197 
      4 N          27.6560   -5.0583   -3.7571 N.am      1 UNK        -0.4892 
      5 CA         27.9568   -4.3181   -2.5247 C.3       1 UNK         0.0835 
      6 C6         29.4846   -4.1669   -2.3263 C.3       12 UNK        -0.0855 
      7 S7         29.9891   -4.0140   -0.5741 S.3       12 UNK        -0.2931 
      8 C8         30.0971   -2.2073   -0.2813 C.3       12 UNK         0.0378 
      9 C9         30.8704   -1.4142   -1.3351 C.ar      12 UNK        -0.0802 
     10 C10        31.9718   -1.9565   -2.0059 C.ar      12 UNK        -0.0944 
     11 C11        32.5839   -1.2571   -3.0479 C.ar      12 UNK        -0.0787 
     12 C12        32.1164    0.0142   -3.3910 C.ar      12 UNK        -0.0862 
     13 C13        31.0501    0.5983   -2.6993 C.ar      12 UNK        -0.0733 
     14 C14        30.4497   -0.1191   -1.6553 C.ar      12 UNK        -0.0832 
     15 C15        30.5962    1.9984   -3.1261 C.3       12 UNK         0.0240 
     16 S16        28.9564    2.5649   -2.5352 S.3       12 UNK        -0.2522 
     17 C17        27.8084    1.3125   -3.1981 C.3       12 UNK        -0.0967 
     18 CA         27.6272    1.3597   -4.7348 C.3       5 UNK         0.0660 
     19 N          27.3718    0.0224   -5.2692 N.am      5 UNK        -0.4015 
     20 C          27.2941   -0.3038   -6.5653 C.2       4 UNK         0.4946 
     21 O          27.4800    0.4858   -7.4898 O.2       4 UNK        -0.5353 
     22 CA         26.8750   -1.7483   -6.8765 C.3       4 UNK         0.0277 
     23 CB         28.0735   -2.7076   -6.7777 C.3       4 UNK        -0.1981 
     24 N          25.7974   -2.1941   -5.9885 N.am      4 UNK        -0.4209 
     25 C          24.5441   -1.7167   -6.0280 C.2       3 UNK         0.4942 
     26 O          24.1461   -0.9101   -6.8677 O.2       3 UNK        -0.5208 
     27 CA         23.5854   -2.1811   -4.9192 C.3       3 UNK         0.0250 
     28 CB         22.9133   -3.5097   -5.2989 C.3       3 UNK        -0.1990 
     29 N          24.2487   -2.3061   -3.6173 N.am      3 UNK        -0.4232 
     30 C          24.6767   -1.2564   -2.8979 C.2       2 UNK         0.4993 
     31 O          24.5345   -0.0869   -3.2520 O.2       2 UNK        -0.5286 
     32 CA         25.4396   -1.5469   -1.5920 C.3       2 UNK         0.0209 
     33 CB         24.4632   -1.6568   -0.4108 C.3       2 UNK        -0.1931 
     34 N          26.2787   -2.7477   -1.6482 N.am      2 UNK        -0.4546 
     35 C          27.2576   -2.9455   -2.5409 C.2       1 UNK         0.5154 
     36 O          27.5703   -2.1193   -3.4006 O.2       1 UNK        -0.5181 
     37 C          26.5491    2.3745   -5.1667 C.2       5 UNK         0.5014 
     38 O          26.8959    3.4516   -5.6518 O.2       5 UNK        -0.5248 
     39 N          25.2668    1.9967   -5.0424 N.am      6 UNK        -0.4434 
     40 CA         24.1132    2.7802   -5.4994 C.3       6 UNK         0.0363 
     41 CB         22.8139    2.1015   -5.0384 C.3       6 UNK        -0.1936 
     42 C          24.0908    3.0070   -7.0220 C.2       6 UNK         0.5081 
     43 O          23.6919    4.0834   -7.4666 O.2       6 UNK        -0.5248 
     44 N          24.5485    2.0098   -7.7911 N.am      7 UNK        -0.4718 
     45 CA         24.7386    2.0917   -9.2430 C.3       7 UNK         0.0273 
     46 CB         24.7734    0.6659   -9.8193 C.3       7 UNK        -0.1935 
     47 C          26.0018    2.8742   -9.6593 C.2       7 UNK         0.5018 
     48 O          26.1764    3.1213  -10.8534 O.2       7 UNK        -0.5186 
     49 N          26.8569    3.2326   -8.6884 N.am      8 UNK        -0.4240 
     50 CA         28.1601    3.8919   -8.8283 C.3       8 UNK         0.0235 
     51 CB         28.0024    5.3207   -9.3915 C.3       8 UNK        -0.2000 
     52 C          29.1904    3.0440   -9.6012 C.2       8 UNK         0.4941 
     53 O          30.0359    3.6002  -10.3058 O.2       8 UNK        -0.5273 
     54 N          29.1123    1.7155   -9.4533 N.am      9 UNK        -0.4262 
     55 CA         30.0536    0.7599  -10.0309 C.3       9 UNK         0.0264 
     56 CB         29.3193   -0.5631  -10.3025 C.3       9 UNK        -0.1955 
     57 C          31.2342    0.5380   -9.0743 C.2       9 UNK         0.5031 
     58 O          31.0455    0.5307   -7.8550 O.2       9 UNK        -0.5390 
     59 N          32.4254    0.3316   -9.6461 N.am      10 UNK        -0.4204 
     60 CA         33.6370   -0.0374   -8.9140 C.3       10 UNK         0.0237 
     61 CB         34.8652    0.4777   -9.6833 C.3       10 UNK        -0.1985 
     62 C          33.7099   -1.5623   -8.7451 C.2       10 UNK         0.4970 
     63 O          33.2401   -2.2962   -9.6186 O.2       10 UNK        -0.4914 
     64 N          34.3315   -2.0061   -7.6476 N.am      11 UNK        -0.4285 
     65 CA         34.5503   -3.4296   -7.3355 C.3       11 UNK         0.1007 
     66 C          35.7615   -4.0699   -8.0760 C.2       11 UNK         0.5703 
     67 N          36.5864   -3.3128   -8.7905 N.am      11 UNK        -0.7361 
     68 O          35.9502   -5.2824   -8.0102 O.2       11 UNK        -0.4986 
     69 C69        34.6298   -3.6782   -5.8061 C.3       12 UNK        -0.0947 
     70 S70        33.1008   -3.1797   -4.9465 S.3       12 UNK        -0.2240 
     71 C71        33.7261   -1.8947   -3.8219 C.3       12 UNK         0.0194 
     72 H72        27.3219   -6.3491   -5.9344 H         1 UNK         0.0906 
     73 H73        25.8094   -7.0761   -5.3904 H         1 UNK         0.0906 
     74 H74        25.7898   -5.5272   -6.2371 H         1 UNK         0.0906 
     75 H75        28.4561   -5.2854   -4.3303 H         1 UNK         0.3140 
     76 H76        27.5552   -4.9110   -1.7000 H         1 UNK         0.1085 
     77 H77        29.8881   -3.3581   -2.9369 H         1 UNK         0.0836 
     78 H78        29.9885   -5.0641   -2.6898 H         1 UNK         0.0836 
     79 H79        30.5632   -2.0399    0.6904 H         1 UNK         0.0731 
     80 H80        29.0785   -1.8238   -0.2023 H         1 UNK         0.0731 
     81 H81        32.3233   -2.9485   -1.7576 H         1 UNK         0.1312 
     82 H82        32.5830    0.5513   -4.2060 H         1 UNK         0.1406 
     83 H83        29.6278    0.3137   -1.1032 H         1 UNK         0.1631 
     84 H84        30.6115    2.0656   -4.2146 H         1 UNK         0.0717 
     85 H85        31.3401    2.7135   -2.7726 H         1 UNK         0.0717 
     86 H86        28.1793    0.3349   -2.8995 H         1 UNK         0.0934 
     87 H87        26.8519    1.4138   -2.6815 H         1 UNK         0.0934 
     88 H88        28.5644    1.6789   -5.1931 H         1 UNK         0.0739 
     89 H89        27.2740   -0.7247   -4.5851 H         1 UNK         0.3093 
     90 H90        26.5034   -1.7730   -7.9032 H         1 UNK         0.0818 
     91 H91        28.4841   -2.7506   -5.7690 H         1 UNK         0.0819 
     92 H92        27.7961   -3.7197   -7.0714 H         1 UNK         0.0819 
     93 H93        28.8824   -2.3905   -7.4367 H         1 UNK         0.0819 
     94 H94        26.0564   -2.8008   -5.2241 H         1 UNK         0.3041 
     95 H95        22.8021   -1.4256   -4.8249 H         1 UNK         0.0784 
     96 H96        22.3674   -3.4135   -6.2385 H         1 UNK         0.0793 
     97 H97        23.6388   -4.3129   -5.4265 H         1 UNK         0.0793 
     98 H98        22.1969   -3.8231   -4.5394 H         1 UNK         0.0793 
     99 H99        24.4508   -3.2453   -3.2905 H         1 UNK         0.3024 
    100 H100       26.0998   -0.6963   -1.4101 H         1 UNK         0.1171 
    101 H101       23.8406   -0.7639   -0.3354 H         1 UNK         0.0786 
    102 H102       24.9944   -1.7591    0.5358 H         1 UNK         0.0786 
    103 H103       23.7949   -2.5123   -0.5165 H         1 UNK         0.0786 
    104 H104       26.0540   -3.4878   -0.9984 H         1 UNK         0.2977 
    105 H105       25.0557    1.1216   -4.5654 H         1 UNK         0.3127 
    106 H106       24.1733    3.7608   -5.0228 H         1 UNK         0.0770 
    107 H107       22.7121    1.1004   -5.4587 H         1 UNK         0.0814 
    108 H108       21.9405    2.6770   -5.3482 H         1 UNK         0.0814 
    109 H109       22.7756    2.0138   -3.9525 H         1 UNK         0.0814 
    110 H110       24.8049    1.1331   -7.3505 H         1 UNK         0.2983 
    111 H111       23.8814    2.6123   -9.6753 H         1 UNK         0.0947 
    112 H112       24.8522    0.6838  -10.9070 H         1 UNK         0.0806 
    113 H113       23.8671    0.1140   -9.5692 H         1 UNK         0.0806 
    114 H114       25.6246    0.0994   -9.4410 H         1 UNK         0.0806 
    115 H115       26.6198    2.9644   -7.7402 H         1 UNK         0.3000 
    116 H116       28.5557    3.9830   -7.8157 H         1 UNK         0.0850 
    117 H117       28.9481    5.8625   -9.3528 H         1 UNK         0.0810 
    118 H118       27.2776    5.8956   -8.8151 H         1 UNK         0.0810 
    119 H119       27.6758    5.3132  -10.4317 H         1 UNK         0.0810 
    120 H120       28.4456    1.3341   -8.7819 H         1 UNK         0.3040 
    121 H121       30.4280    1.1466  -10.9814 H         1 UNK         0.0766 
    122 H122       28.4921   -0.4206  -10.9980 H         1 UNK         0.0812 
    123 H123       28.9136   -0.9927   -9.3868 H         1 UNK         0.0812 
    124 H124       29.9911   -1.3024  -10.7407 H         1 UNK         0.0812 
    125 H125       32.4828    0.2934  -10.6538 H         1 UNK         0.3205 
    126 H126       33.6234    0.4314   -7.9272 H         1 UNK         0.0754 
    127 H127       35.7872    0.2568   -9.1440 H         1 UNK         0.0769 
    128 H128       34.8229    1.5589   -9.8174 H         1 UNK         0.0769 
    129 H129       34.9468    0.0208  -10.6707 H         1 UNK         0.0769 
    130 H130       34.7077   -1.3436   -6.9864 H         1 UNK         0.2981 
    131 H131       33.6792   -3.9810   -7.6955 H         1 UNK         0.0541 
    132 H132       36.4420   -2.3189   -8.8581 H         1 UNK         0.3459 
    133 H133       37.3620   -3.7445   -9.2678 H         1 UNK         0.3459 
    134 H134       34.7821   -4.7386   -5.5962 H         1 UNK         0.0612 
    135 H135       35.4883   -3.1580   -5.3776 H         1 UNK         0.0612 
    136 H136       34.4415   -2.3366   -3.1267 H         1 UNK         0.0624 
    137 H137       34.2686   -1.1421   -4.3960 H         1 UNK         0.0624 
@<TRIPOS>BOND
     1    1    2 1    
     2    1   72 1    
     3    1   73 1    
     4    1   74 1    
     5    2    3 2    
     6    2    4 am   BACKBONE|DICT|INTERRES
     7    4    5 1    
     8    4   75 1    
     9    5    6 1    
    10    5   35 1    
    11    5   76 1    
    12    6    7 1    
    13    6   77 1    
    14    6   78 1    
    15    7    8 1    
    16    8    9 1    
    17    8   79 1    
    18    8   80 1    
    19    9   10 ar   
    20    9   14 ar   
    21   10   11 ar   
    22   10   81 1    
    23   11   12 ar   
    24   11   71 1    
    25   12   13 ar   
    26   12   82 1    
    27   13   14 ar   
    28   13   15 1    
    29   14   83 1    
    30   15   16 1    
    31   15   84 1    
    32   15   85 1    
    33   16   17 1    
    34   17   18 1    
    35   17   86 1    
    36   17   87 1    
    37   18   19 1    
    38   18   37 1    
    39   18   88 1    
    40   19   20 am   BACKBONE|DICT|INTERRES
    41   19   89 1    
    42   20   21 2    
    43   20   22 1    
    44   22   23 1    
    45   22   24 1    
    46   22   90 1    
    47   23   91 1    
    48   23   92 1    
    49   23   93 1    
    50   24   25 am   BACKBONE|DICT|INTERRES
    51   24   94 1    
    52   25   26 2    
    53   25   27 1    
    54   27   28 1    
    55   27   29 1    
    56   27   95 1    
    57   28   96 1    
    58   28   97 1    
    59   28   98 1    
    60   29   30 am   BACKBONE|DICT|INTERRES
    61   29   99 1    
    62   30   31 2    
    63   30   32 1    
    64   32   33 1    
    65   32   34 1    
    66   32  100 1    
    67   33  101 1    
    68   33  102 1    
    69   33  103 1    
    70   34   35 am   BACKBONE|DICT|INTERRES
    71   34  104 1    
    72   35   36 2    
    73   37   38 2    
    74   37   39 am   BACKBONE|DICT|INTERRES
    75   39   40 1    
    76   39  105 1    
    77   40   41 1    
    78   40   42 1    
    79   40  106 1    
    80   41  107 1    
    81   41  108 1    
    82   41  109 1    
    83   42   43 2    
    84   42   44 am   BACKBONE|DICT|INTERRES
    85   44   45 1    
    86   44  110 1    
    87   45   46 1    
    88   45   47 1    
    89   45  111 1    
    90   46  112 1    
    91   46  113 1    
    92   46  114 1    
    93   47   48 2    
    94   47   49 am   BACKBONE|DICT|INTERRES
    95   49   50 1    
    96   49  115 1    
    97   50   51 1    
    98   50   52 1    
    99   50  116 1    
   100   51  117 1    
   101   51  118 1    
   102   51  119 1    
   103   52   53 2    
   104   52   54 am   BACKBONE|DICT|INTERRES
   105   54   55 1    
   106   54  120 1    
   107   55   56 1    
   108   55   57 1    
   109   55  121 1    
   110   56  122 1    
   111   56  123 1    
   112   56  124 1    
   113   57   58 2    
   114   57   59 am   BACKBONE|DICT|INTERRES
   115   59   60 1    
   116   59  125 1    
   117   60   61 1    
   118   60   62 1    
   119   60  126 1    
   120   61  127 1    
   121   61  128 1    
   122   61  129 1    
   123   62   63 2    
   124   62   64 am   BACKBONE|DICT|INTERRES
   125   64   65 1    
   126   64  130 1    
   127   65   66 1    
   128   65   69 1    
   129   65  131 1    
   130   66   67 am   BACKBONE|DICT|INTERRES
   131   66   68 2    
   132   67  132 1    
   133   67  133 1    
   134   69   70 1    
   135   69  134 1    
   136   69  135 1    
   137   70   71 1    
   138   71  136 1    
   139   71  137 1    
@<TRIPOS>SUBSTRUCTURE
     1 UNK         1 GROUP             0       ****    0 ROOT    
