@<TRIPOS>MOLECULE
3R137
137   139    1
SMALL
USER_CHARGES


@<TRIPOS>ATOM
      1 CA         26.1992   -0.9493    4.6741 C.3       0 UNK        -0.2020 
      2 C          26.2704   -0.5245    3.2148 C.2       0 UNK         0.4855 
      3 O          25.8793    0.5953    2.8835 O.2       0 UNK        -0.5197 
      4 N          26.7740   -1.4053    2.3410 N.am      1 UNK        -0.4892 
      5 CA         26.8476   -1.1920    0.8930 C.3       1 UNK         0.0835 
      6 C6         27.8414   -2.1852    0.2398 C.3       12 UNK        -0.0855 
      7 S7         28.2138   -1.7637   -1.4942 S.3       12 UNK        -0.2931 
      8 C8         29.9697   -2.2180   -1.6365 C.3       12 UNK         0.0378 
      9 C9         30.3950   -2.2295   -3.0973 C.ar      12 UNK        -0.0802 
     10 C10        31.1301   -1.1713   -3.6429 C.ar      12 UNK        -0.0944 
     11 C11        31.4761   -1.1745   -4.9990 C.ar      12 UNK        -0.0787 
     12 C12        31.0819   -2.2450   -5.8089 C.ar      12 UNK        -0.0862 
     13 C13        30.3573   -3.3107   -5.2706 C.ar      12 UNK        -0.0733 
     14 C14        30.0236   -3.3003   -3.9143 C.ar      12 UNK        -0.0832 
     15 C15        29.9283   -4.4786   -6.1426 C.3       12 UNK         0.0240 
     16 S16        28.1836   -4.3313   -6.6384 S.3       12 UNK        -0.2522 
     17 C17        28.2828   -3.4177   -8.2171 C.3       12 UNK        -0.0967 
     18 CA         27.5375   -2.0596   -8.2424 C.3       5 UNK         0.0660 
     19 N          26.1734   -2.1506   -7.7055 N.am      5 UNK        -0.4015 
     20 C          25.2381   -1.1987   -7.8129 C.2       4 UNK         0.4946 
     21 O          25.4003   -0.1715   -8.4725 O.2       4 UNK        -0.5353 
     22 CA         23.9551   -1.3543   -6.9763 C.3       4 UNK         0.0277 
     23 CB         22.8864   -2.1669   -7.7327 C.3       4 UNK        -0.1981 
     24 N          24.1857   -1.8613   -5.6103 N.am      4 UNK        -0.4209 
     25 C          24.5593   -3.0907   -5.2214 C.2       3 UNK         0.4942 
     26 O          24.7497   -4.0134   -6.0137 O.2       3 UNK        -0.5208 
     27 CA         24.8210   -3.3343   -3.7194 C.3       3 UNK         0.0250 
     28 CB         26.1727   -4.0390   -3.5059 C.3       3 UNK        -0.1990 
     29 N          24.8011   -2.1230   -2.8911 N.am      3 UNK        -0.4232 
     30 C          23.7010   -1.5273   -2.4097 C.2       2 UNK         0.4993 
     31 O          22.5580   -1.8974   -2.6812 O.2       2 UNK        -0.5286 
     32 CA         23.9215   -0.3031   -1.4951 C.3       2 UNK         0.0209 
     33 CB         22.6972    0.0123   -0.6080 C.3       2 UNK        -0.1931 
     34 N          25.1507   -0.3878   -0.6900 N.am      2 UNK        -0.4546 
     35 C          25.4398   -1.2901    0.2621 C.2       1 UNK         0.5154 
     36 O          24.6748   -2.1885    0.6233 O.2       1 UNK        -0.5181 
     37 C          28.3613   -0.9092   -7.6173 C.2       5 UNK         0.5014 
     38 O          29.2967   -0.4203   -8.2556 O.2       5 UNK        -0.5248 
     39 N          27.9692   -0.4616   -6.4150 N.am      6 UNK        -0.4434 
     40 CA         28.4716    0.7442   -5.7579 C.3       6 UNK         0.0363 
     41 CB         28.0543    0.7330   -4.2820 C.3       6 UNK        -0.1936 
     42 C          27.9972    2.0394   -6.4322 C.2       6 UNK         0.5081 
     43 O          28.7809    2.9815   -6.5346 O.2       6 UNK        -0.5248 
     44 N          26.7409    2.0627   -6.9013 N.am      7 UNK        -0.4718 
     45 CA         26.1592    3.1901   -7.6378 C.3       7 UNK         0.0273 
     46 CB         24.6257    3.0813   -7.6406 C.3       7 UNK        -0.1935 
     47 C          26.7109    3.2768   -9.0692 C.2       7 UNK         0.5018 
     48 O          26.9273    4.3803   -9.5703 O.2       7 UNK        -0.5186 
     49 N          26.9767    2.1113   -9.6774 N.am      8 UNK        -0.4240 
     50 CA         27.7046    1.9804  -10.9432 C.3       8 UNK         0.0235 
     51 CB         27.5187    0.5537  -11.4843 C.3       8 UNK        -0.2000 
     52 C          29.2070    2.3081  -10.8196 C.2       8 UNK         0.4941 
     53 O          29.8406    2.5778  -11.8404 O.2       8 UNK        -0.5273 
     54 N          29.7413    2.2635   -9.5879 N.am      9 UNK        -0.4262 
     55 CA         31.1424    2.4546   -9.1973 C.3       9 UNK         0.0264 
     56 CB         31.5866    3.9127   -9.4375 C.3       9 UNK        -0.1955 
     57 C          32.0726    1.4167   -9.8522 C.2       9 UNK         0.5031 
     58 O          33.1114    1.7772  -10.4089 O.2       9 UNK        -0.5390 
     59 N          31.6624    0.1418   -9.7954 N.am      10 UNK        -0.4204 
     60 CA         32.3502   -0.9750  -10.4500 C.3       10 UNK         0.0237 
     61 CB         31.3910   -2.1717  -10.5335 C.3       10 UNK        -0.1985 
     62 C          33.6604   -1.3965   -9.7604 C.2       10 UNK         0.4970 
     63 O          34.5293   -1.9624  -10.4253 O.2       10 UNK        -0.4914 
     64 N          33.7661   -1.1526   -8.4486 N.am      11 UNK        -0.4285 
     65 CA         34.9335   -1.4890   -7.6239 C.3       11 UNK         0.1007 
     66 C          36.1600   -0.5658   -7.8743 C.2       11 UNK         0.5703 
     67 N          37.3546   -1.0162   -7.5137 N.am      11 UNK        -0.7361 
     68 O          36.0430    0.5548   -8.3671 O.2       11 UNK        -0.4986 
     69 C69        34.5532   -1.6091   -6.1230 C.3       12 UNK        -0.0947 
     70 S70        34.0239   -0.0567   -5.3131 S.3       12 UNK        -0.2240 
     71 C71        32.2269    0.0033   -5.6050 C.3       12 UNK         0.0194 
     72 H72        26.5905   -1.9550    4.8266 H         1 UNK         0.0906 
     73 H73        26.7770   -0.2636    5.2933 H         1 UNK         0.0906 
     74 H74        25.1658   -0.9319    5.0195 H         1 UNK         0.0906 
     75 H75        27.0446   -2.3236    2.6639 H         1 UNK         0.3140 
     76 H76        27.2285   -0.1800    0.7344 H         1 UNK         0.1085 
     77 H77        28.7777   -2.1856    0.8007 H         1 UNK         0.0836 
     78 H78        27.4616   -3.2082    0.2818 H         1 UNK         0.0836 
     79 H79        30.1301   -3.2059   -1.2016 H         1 UNK         0.0731 
     80 H80        30.5761   -1.5180   -1.0596 H         1 UNK         0.0731 
     81 H81        31.4158   -0.3354   -3.0191 H         1 UNK         0.1312 
     82 H82        31.3307   -2.2452   -6.8608 H         1 UNK         0.1406 
     83 H83        29.4505   -4.1175   -3.4974 H         1 UNK         0.1631 
     84 H84        30.0504   -5.4068   -5.5824 H         1 UNK         0.0717 
     85 H85        30.5704   -4.5732   -7.0194 H         1 UNK         0.0717 
     86 H86        29.3233   -3.2937   -8.5128 H         1 UNK         0.0934 
     87 H87        27.8502   -4.0671   -8.9798 H         1 UNK         0.0934 
     88 H88        27.4268   -1.7915   -9.2941 H         1 UNK         0.0739 
     89 H89        25.9517   -2.9779   -7.1569 H         1 UNK         0.3093 
     90 H90        23.5543   -0.3477   -6.8448 H         1 UNK         0.0818 
     91 H91        22.6412   -1.6912   -8.6832 H         1 UNK         0.0819 
     92 H92        23.2200   -3.1799   -7.9585 H         1 UNK         0.0819 
     93 H93        21.9627   -2.2379   -7.1584 H         1 UNK         0.0819 
     94 H94        24.0528   -1.1816   -4.8753 H         1 UNK         0.3041 
     95 H95        24.0343   -4.0058   -3.3692 H         1 UNK         0.0784 
     96 H96        26.2137   -4.9908   -4.0374 H         1 UNK         0.0793 
     97 H97        27.0021   -3.4299   -3.8665 H         1 UNK         0.0793 
     98 H98        26.3480   -4.2539   -2.4515 H         1 UNK         0.0793 
     99 H99        25.7015   -1.7613   -2.6074 H         1 UNK         0.3024 
    100 H100       24.0573    0.5450   -2.1685 H         1 UNK         0.1171 
    101 H101       22.8767    0.8843    0.0210 H         1 UNK         0.0786 
    102 H102       21.8182    0.2295   -1.2164 H         1 UNK         0.0786 
    103 H103       22.4403   -0.8237    0.0431 H         1 UNK         0.0786 
    104 H104       25.8597    0.2974   -0.9148 H         1 UNK         0.2977 
    105 H105       27.2294   -0.9603   -5.9460 H         1 UNK         0.3127 
    106 H106       29.5591    0.7305   -5.8097 H         1 UNK         0.0770 
    107 H107       26.9707    0.7382   -4.1600 H         1 UNK         0.0814 
    108 H108       28.4498    1.6029   -3.7560 H         1 UNK         0.0814 
    109 H109       28.4456   -0.1494   -3.7827 H         1 UNK         0.0814 
    110 H110       26.1783    1.2258   -6.8426 H         1 UNK         0.2983 
    111 H111       26.4316    4.1141   -7.1222 H         1 UNK         0.0947 
    112 H112       24.1782    3.9448   -8.1348 H         1 UNK         0.0806 
    113 H113       24.2279    3.0480   -6.6263 H         1 UNK         0.0806 
    114 H114       24.2783    2.1926   -8.1678 H         1 UNK         0.0806 
    115 H115       26.6762    1.2555   -9.2211 H         1 UNK         0.3000 
    116 H116       27.2695    2.6810  -11.6591 H         1 UNK         0.0850 
    117 H117       27.9413    0.4612  -12.4856 H         1 UNK         0.0810 
    118 H118       26.4646    0.2827  -11.5497 H         1 UNK         0.0810 
    119 H119       28.0196   -0.1815  -10.8552 H         1 UNK         0.0810 
    120 H120       29.1236    2.0010   -8.8324 H         1 UNK         0.3040 
    121 H121       31.1868    2.2707   -8.1226 H         1 UNK         0.0766 
    122 H122       31.6032    4.1628  -10.4988 H         1 UNK         0.0812 
    123 H123       32.5907    4.0836   -9.0475 H         1 UNK         0.0812 
    124 H124       30.9203    4.6155   -8.9371 H         1 UNK         0.0812 
    125 H125       30.7884   -0.0667   -9.3130 H         1 UNK         0.3205 
    126 H126       32.5980   -0.6667  -11.4682 H         1 UNK         0.0754 
    127 H127       31.8265   -2.9797  -11.1230 H         1 UNK         0.0769 
    128 H128       30.4459   -1.8984  -11.0035 H         1 UNK         0.0769 
    129 H129       31.1760   -2.5722   -9.5440 H         1 UNK         0.0769 
    130 H130       33.0359   -0.6306   -7.9935 H         1 UNK         0.2981 
    131 H131       35.2470   -2.4868   -7.9379 H         1 UNK         0.0541 
    132 H132       38.1618   -0.4301   -7.6582 H         1 UNK         0.3459 
    133 H133       37.4664   -1.9288   -7.1002 H         1 UNK         0.3459 
    134 H134       35.4091   -1.9856   -5.5606 H         1 UNK         0.0612 
    135 H135       33.7855   -2.3709   -5.9956 H         1 UNK         0.0612 
    136 H136       32.0253    0.0768   -6.6733 H         1 UNK         0.0624 
    137 H137       31.8497    0.9301   -5.1705 H         1 UNK         0.0624 
@<TRIPOS>BOND
     1    1    2 1    
     2    1   72 1    
     3    1   73 1    
     4    1   74 1    
     5    2    3 2    
     6    2    4 am   BACKBONE|DICT|INTERRES
     7    4    5 1    
     8    4   75 1    
     9    5    6 1    
    10    5   35 1    
    11    5   76 1    
    12    6    7 1    
    13    6   77 1    
    14    6   78 1    
    15    7    8 1    
    16    8    9 1    
    17    8   79 1    
    18    8   80 1    
    19    9   10 ar   
    20    9   14 ar   
    21   10   11 ar   
    22   10   81 1    
    23   11   12 ar   
    24   11   71 1    
    25   12   13 ar   
    26   12   82 1    
    27   13   14 ar   
    28   13   15 1    
    29   14   83 1    
    30   15   16 1    
    31   15   84 1    
    32   15   85 1    
    33   16   17 1    
    34   17   18 1    
    35   17   86 1    
    36   17   87 1    
    37   18   19 1    
    38   18   37 1    
    39   18   88 1    
    40   19   20 am   BACKBONE|DICT|INTERRES
    41   19   89 1    
    42   20   21 2    
    43   20   22 1    
    44   22   23 1    
    45   22   24 1    
    46   22   90 1    
    47   23   91 1    
    48   23   92 1    
    49   23   93 1    
    50   24   25 am   BACKBONE|DICT|INTERRES
    51   24   94 1    
    52   25   26 2    
    53   25   27 1    
    54   27   28 1    
    55   27   29 1    
    56   27   95 1    
    57   28   96 1    
    58   28   97 1    
    59   28   98 1    
    60   29   30 am   BACKBONE|DICT|INTERRES
    61   29   99 1    
    62   30   31 2    
    63   30   32 1    
    64   32   33 1    
    65   32   34 1    
    66   32  100 1    
    67   33  101 1    
    68   33  102 1    
    69   33  103 1    
    70   34   35 am   BACKBONE|DICT|INTERRES
    71   34  104 1    
    72   35   36 2    
    73   37   38 2    
    74   37   39 am   BACKBONE|DICT|INTERRES
    75   39   40 1    
    76   39  105 1    
    77   40   41 1    
    78   40   42 1    
    79   40  106 1    
    80   41  107 1    
    81   41  108 1    
    82   41  109 1    
    83   42   43 2    
    84   42   44 am   BACKBONE|DICT|INTERRES
    85   44   45 1    
    86   44  110 1    
    87   45   46 1    
    88   45   47 1    
    89   45  111 1    
    90   46  112 1    
    91   46  113 1    
    92   46  114 1    
    93   47   48 2    
    94   47   49 am   BACKBONE|DICT|INTERRES
    95   49   50 1    
    96   49  115 1    
    97   50   51 1    
    98   50   52 1    
    99   50  116 1    
   100   51  117 1    
   101   51  118 1    
   102   51  119 1    
   103   52   53 2    
   104   52   54 am   BACKBONE|DICT|INTERRES
   105   54   55 1    
   106   54  120 1    
   107   55   56 1    
   108   55   57 1    
   109   55  121 1    
   110   56  122 1    
   111   56  123 1    
   112   56  124 1    
   113   57   58 2    
   114   57   59 am   BACKBONE|DICT|INTERRES
   115   59   60 1    
   116   59  125 1    
   117   60   61 1    
   118   60   62 1    
   119   60  126 1    
   120   61  127 1    
   121   61  128 1    
   122   61  129 1    
   123   62   63 2    
   124   62   64 am   BACKBONE|DICT|INTERRES
   125   64   65 1    
   126   64  130 1    
   127   65   66 1    
   128   65   69 1    
   129   65  131 1    
   130   66   67 am   BACKBONE|DICT|INTERRES
   131   66   68 2    
   132   67  132 1    
   133   67  133 1    
   134   69   70 1    
   135   69  134 1    
   136   69  135 1    
   137   70   71 1    
   138   71  136 1    
   139   71  137 1    
@<TRIPOS>SUBSTRUCTURE
     1 UNK         1 GROUP             0       ****    0 ROOT    
