@<TRIPOS>MOLECULE
3R137
137   139    1
SMALL
USER_CHARGES


@<TRIPOS>ATOM
      1 CA         27.1573   -6.2590    2.2090 C.3       0 UNK        -0.2020 
      2 C          26.5057   -4.8912    2.0727 C.2       0 UNK         0.4855 
      3 O          25.3255   -4.7404    2.3891 O.2       0 UNK        -0.5197 
      4 N          27.2660   -3.8926    1.6057 N.am      1 UNK        -0.4892 
      5 CA         26.8100   -2.5150    1.3755 C.3       1 UNK         0.0835 
      6 C6         27.9946   -1.5194    1.2466 C.3       12 UNK        -0.0855 
      7 S7         29.3539   -2.0941    0.1670 S.3       12 UNK        -0.2931 
      8 C8         29.0352   -1.1453   -1.3485 C.3       12 UNK         0.0378 
      9 C9         29.9682   -1.5819   -2.4655 C.ar      12 UNK        -0.0802 
     10 C10        31.0921   -0.8203   -2.8018 C.ar      12 UNK        -0.0944 
     11 C11        31.9448   -1.2321   -3.8321 C.ar      12 UNK        -0.0787 
     12 C12        31.6649   -2.4159   -4.5243 C.ar      12 UNK        -0.0862 
     13 C13        30.5545   -3.1945   -4.1829 C.ar      12 UNK        -0.0733 
     14 C14        29.7078   -2.7674   -3.1564 C.ar      12 UNK        -0.0832 
     15 C15        30.3011   -4.5236   -4.8828 C.3       12 UNK         0.0240 
     16 S16        29.4649   -4.3325   -6.4883 S.3       12 UNK        -0.2522 
     17 C17        27.8063   -3.7594   -5.9853 C.3       12 UNK        -0.0967 
     18 CA         27.3480   -2.4902   -6.7407 C.3       5 UNK         0.0660 
     19 N          25.9179   -2.2531   -6.5434 N.am      5 UNK        -0.4015 
     20 C          25.1135   -1.6492   -7.4284 C.2       4 UNK         0.4946 
     21 O          25.4765   -1.2750   -8.5435 O.2       4 UNK        -0.5353 
     22 CA         23.6552   -1.4143   -6.9947 C.3       4 UNK         0.0277 
     23 CB         22.7760   -2.6115   -7.3911 C.3       4 UNK        -0.1981 
     24 N          23.5197   -1.1642   -5.5569 N.am      4 UNK        -0.4209 
     25 C          23.9505   -0.0537   -4.9417 C.2       3 UNK         0.4942 
     26 O          24.4457    0.9057   -5.5320 O.2       3 UNK        -0.5208 
     27 CA         23.8369   -0.0141   -3.4071 C.3       3 UNK         0.0250 
     28 CB         22.5037    0.6248   -2.9866 C.3       3 UNK        -0.1990 
     29 N          23.9837   -1.3146   -2.7412 N.am      3 UNK        -0.4232 
     30 C          25.0502   -2.1222   -2.8281 C.2       2 UNK         0.4993 
     31 O          26.0134   -1.9112   -3.5677 O.2       2 UNK        -0.5286 
     32 CA         25.0323   -3.3886   -1.9548 C.3       2 UNK         0.0209 
     33 CB         25.4247   -4.6301   -2.7751 C.3       2 UNK        -0.1931 
     34 N          25.9223   -3.2833   -0.7950 N.am      2 UNK        -0.4546 
     35 C          25.8117   -2.3922    0.2027 C.2       1 UNK         0.5154 
     36 O          24.9433   -1.5195    0.2464 O.2       1 UNK        -0.5181 
     37 C          28.1657   -1.2360   -6.3679 C.2       5 UNK         0.5014 
     38 O          29.1716   -0.9689   -7.0189 O.2       5 UNK        -0.5248 
     39 N          27.6956   -0.4596   -5.3781 N.am      6 UNK        -0.4434 
     40 CA         28.2866    0.8043   -4.9182 C.3       6 UNK         0.0363 
     41 CB         27.5182    1.2969   -3.6809 C.3       6 UNK        -0.1936 
     42 C          28.3345    1.9292   -5.9735 C.2       6 UNK         0.5081 
     43 O          29.0084    2.9341   -5.7420 O.2       6 UNK        -0.5248 
     44 N          27.6100    1.7715   -7.0895 N.am      7 UNK        -0.4718 
     45 CA         27.6247    2.6735   -8.2402 C.3       7 UNK         0.0273 
     46 CB         26.5521    2.2143   -9.2407 C.3       7 UNK        -0.1935 
     47 C          29.0046    2.7134   -8.9197 C.2       7 UNK         0.5018 
     48 O          29.6619    1.6757   -9.0363 O.2       7 UNK        -0.5186 
     49 N          29.3890    3.8991   -9.4130 N.am      8 UNK        -0.4240 
     50 CA         30.6870    4.1929  -10.0397 C.3       8 UNK         0.0235 
     51 CB         30.7539    5.6940  -10.3675 C.3       8 UNK        -0.2000 
     52 C          31.0271    3.3557  -11.2892 C.2       8 UNK         0.4941 
     53 O          32.1958    3.2885  -11.6708 O.2       8 UNK        -0.5273 
     54 N          30.0142    2.7259  -11.8991 N.am      9 UNK        -0.4262 
     55 CA         30.1620    1.7618  -12.9891 C.3       9 UNK         0.0264 
     56 CB         28.7868    1.5272  -13.6362 C.3       9 UNK        -0.1955 
     57 C          30.7826    0.4204  -12.5484 C.2       9 UNK         0.5031 
     58 O          31.3021   -0.2935  -13.4080 O.2       9 UNK        -0.5390 
     59 N          30.7100    0.0899  -11.2502 N.am      10 UNK        -0.4204 
     60 CA         31.2205   -1.1570  -10.6775 C.3       10 UNK         0.0237 
     61 CB         30.0446   -2.0125  -10.1764 C.3       10 UNK        -0.1985 
     62 C          32.2429   -0.8896   -9.5640 C.2       10 UNK         0.4970 
     63 O          33.3299   -1.4677   -9.6040 O.2       10 UNK        -0.4914 
     64 N          31.8983   -0.0257   -8.6017 N.am      11 UNK        -0.4285 
     65 CA         32.7778    0.3869   -7.5022 C.3       11 UNK         0.1007 
     66 C          33.8438    1.4003   -7.9961 C.2       11 UNK         0.5703 
     67 N          35.1238    1.1064   -7.8095 N.am      11 UNK        -0.7361 
     68 O          33.5179    2.4623   -8.5206 O.2       11 UNK        -0.4986 
     69 C69        31.9367    0.9291   -6.3195 C.3       12 UNK        -0.0947 
     70 S70        32.8683    1.2453   -4.7841 S.3       12 UNK        -0.2240 
     71 C71        33.2024   -0.4353   -4.1602 C.3       12 UNK         0.0194 
     72 H72        28.2021   -6.2463    1.8991 H         1 UNK         0.0906 
     73 H73        27.1156   -6.5927    3.2455 H         1 UNK         0.0906 
     74 H74        26.6302   -6.9885    1.5946 H         1 UNK         0.0906 
     75 H75        28.2337   -4.0637    1.3655 H         1 UNK         0.3140 
     76 H76        26.2457   -2.2187    2.2632 H         1 UNK         0.1085 
     77 H77        28.4266   -1.3629    2.2363 H         1 UNK         0.0836 
     78 H78        27.6517   -0.5323    0.9291 H         1 UNK         0.0836 
     79 H79        28.0018   -1.3013   -1.6591 H         1 UNK         0.0731 
     80 H80        29.1472   -0.0791   -1.1452 H         1 UNK         0.0731 
     81 H81        31.3095    0.0897   -2.2594 H         1 UNK         0.1312 
     82 H82        32.3235   -2.7479   -5.3151 H         1 UNK         0.1406 
     83 H83        28.8512   -3.3643   -2.8754 H         1 UNK         0.1631 
     84 H84        29.7121   -5.1869   -4.2474 H         1 UNK         0.0717 
     85 H85        31.2526   -5.0319   -5.0457 H         1 UNK         0.0717 
     86 H86        27.1151   -4.5782   -6.1912 H         1 UNK         0.0934 
     87 H87        27.7585   -3.6013   -4.9093 H         1 UNK         0.0934 
     88 H88        27.5132   -2.6697   -7.8059 H         1 UNK         0.0739 
     89 H89        25.5581   -2.4624   -5.6215 H         1 UNK         0.3093 
     90 H90        23.2920   -0.5327   -7.5279 H         1 UNK         0.0818 
     91 H91        21.7264   -2.4265   -7.1617 H         1 UNK         0.0819 
     92 H92        22.8418   -2.8043   -8.4629 H         1 UNK         0.0819 
     93 H93        23.0773   -3.5252   -6.8771 H         1 UNK         0.0819 
     94 H94        23.1024   -1.8936   -4.9969 H         1 UNK         0.3041 
     95 H95        24.6433    0.6219   -3.0394 H         1 UNK         0.0784 
     96 H96        22.3789    1.6068   -3.4457 H         1 UNK         0.0793 
     97 H97        21.6503    0.0146   -3.2851 H         1 UNK         0.0793 
     98 H98        22.4547    0.7672   -1.9068 H         1 UNK         0.0793 
     99 H99        23.2553   -1.5581   -2.0848 H         1 UNK         0.3024 
    100 H100       24.0168   -3.5405   -1.5825 H         1 UNK         0.1171 
    101 H101       24.8026   -4.7257   -3.6661 H         1 UNK         0.0786 
    102 H102       25.2974   -5.5439   -2.1943 H         1 UNK         0.0786 
    103 H103       26.4630   -4.5873   -3.1046 H         1 UNK         0.0786 
    104 H104       26.6725   -3.9556   -0.7359 H         1 UNK         0.2977 
    105 H105       26.9098   -0.8087   -4.8367 H         1 UNK         0.3127 
    106 H106       29.3139    0.5880   -4.6219 H         1 UNK         0.0770 
    107 H107       26.5433    1.7006   -3.9538 H         1 UNK         0.0814 
    108 H108       28.0670    2.0941   -3.1782 H         1 UNK         0.0814 
    109 H109       27.3577    0.5031   -2.9548 H         1 UNK         0.0814 
    110 H110       27.0984    0.9080   -7.1968 H         1 UNK         0.2983 
    111 H111       27.3735    3.6743   -7.8827 H         1 UNK         0.0947 
    112 H112       26.5013    2.8841  -10.1001 H         1 UNK         0.0806 
    113 H113       25.5626    2.2002   -8.7827 H         1 UNK         0.0806 
    114 H114       26.7577    1.2112   -9.6183 H         1 UNK         0.0806 
    115 H115       28.7690    4.6880   -9.2964 H         1 UNK         0.3000 
    116 H116       31.4558    3.9725   -9.2968 H         1 UNK         0.0850 
    117 H117       31.7195    5.9568  -10.8021 H         1 UNK         0.0810 
    118 H118       30.6301    6.3033   -9.4720 H         1 UNK         0.0810 
    119 H119       29.9845    5.9852  -11.0837 H         1 UNK         0.0810 
    120 H120       29.0850    2.8540  -11.5267 H         1 UNK         0.3040 
    121 H121       30.8243    2.1972  -13.7405 H         1 UNK         0.0766 
    122 H122       28.3647    2.4555  -14.0215 H         1 UNK         0.0812 
    123 H123       28.0745    1.1004  -12.9287 H         1 UNK         0.0812 
    124 H124       28.8642    0.8359  -14.4767 H         1 UNK         0.0812 
    125 H125       30.2962    0.7486  -10.5944 H         1 UNK         0.3205 
    126 H126       31.7439   -1.7388  -11.4392 H         1 UNK         0.0754 
    127 H127       30.3929   -2.8754   -9.6066 H         1 UNK         0.0769 
    128 H128       29.4521   -2.3895  -11.0099 H         1 UNK         0.0769 
    129 H129       29.3773   -1.4405   -9.5324 H         1 UNK         0.0769 
    130 H130       30.9918    0.4345   -8.6373 H         1 UNK         0.2981 
    131 H131       33.2901   -0.5101   -7.1504 H         1 UNK         0.0541 
    132 H132       35.4018    0.2383   -7.3797 H         1 UNK         0.3459 
    133 H133       35.8255    1.7620   -8.1152 H         1 UNK         0.3459 
    134 H134       31.1501    0.2196   -6.0744 H         1 UNK         0.0612 
    135 H135       31.4288    1.8509   -6.6079 H         1 UNK         0.0612 
    136 H136       33.8226   -0.9665   -4.8831 H         1 UNK         0.0624 
    137 H137       33.8052   -0.3504   -3.2552 H         1 UNK         0.0624 
@<TRIPOS>BOND
     1    1    2 1    
     2    1   72 1    
     3    1   73 1    
     4    1   74 1    
     5    2    3 2    
     6    2    4 am   BACKBONE|DICT|INTERRES
     7    4    5 1    
     8    4   75 1    
     9    5    6 1    
    10    5   35 1    
    11    5   76 1    
    12    6    7 1    
    13    6   77 1    
    14    6   78 1    
    15    7    8 1    
    16    8    9 1    
    17    8   79 1    
    18    8   80 1    
    19    9   10 ar   
    20    9   14 ar   
    21   10   11 ar   
    22   10   81 1    
    23   11   12 ar   
    24   11   71 1    
    25   12   13 ar   
    26   12   82 1    
    27   13   14 ar   
    28   13   15 1    
    29   14   83 1    
    30   15   16 1    
    31   15   84 1    
    32   15   85 1    
    33   16   17 1    
    34   17   18 1    
    35   17   86 1    
    36   17   87 1    
    37   18   19 1    
    38   18   37 1    
    39   18   88 1    
    40   19   20 am   BACKBONE|DICT|INTERRES
    41   19   89 1    
    42   20   21 2    
    43   20   22 1    
    44   22   23 1    
    45   22   24 1    
    46   22   90 1    
    47   23   91 1    
    48   23   92 1    
    49   23   93 1    
    50   24   25 am   BACKBONE|DICT|INTERRES
    51   24   94 1    
    52   25   26 2    
    53   25   27 1    
    54   27   28 1    
    55   27   29 1    
    56   27   95 1    
    57   28   96 1    
    58   28   97 1    
    59   28   98 1    
    60   29   30 am   BACKBONE|DICT|INTERRES
    61   29   99 1    
    62   30   31 2    
    63   30   32 1    
    64   32   33 1    
    65   32   34 1    
    66   32  100 1    
    67   33  101 1    
    68   33  102 1    
    69   33  103 1    
    70   34   35 am   BACKBONE|DICT|INTERRES
    71   34  104 1    
    72   35   36 2    
    73   37   38 2    
    74   37   39 am   BACKBONE|DICT|INTERRES
    75   39   40 1    
    76   39  105 1    
    77   40   41 1    
    78   40   42 1    
    79   40  106 1    
    80   41  107 1    
    81   41  108 1    
    82   41  109 1    
    83   42   43 2    
    84   42   44 am   BACKBONE|DICT|INTERRES
    85   44   45 1    
    86   44  110 1    
    87   45   46 1    
    88   45   47 1    
    89   45  111 1    
    90   46  112 1    
    91   46  113 1    
    92   46  114 1    
    93   47   48 2    
    94   47   49 am   BACKBONE|DICT|INTERRES
    95   49   50 1    
    96   49  115 1    
    97   50   51 1    
    98   50   52 1    
    99   50  116 1    
   100   51  117 1    
   101   51  118 1    
   102   51  119 1    
   103   52   53 2    
   104   52   54 am   BACKBONE|DICT|INTERRES
   105   54   55 1    
   106   54  120 1    
   107   55   56 1    
   108   55   57 1    
   109   55  121 1    
   110   56  122 1    
   111   56  123 1    
   112   56  124 1    
   113   57   58 2    
   114   57   59 am   BACKBONE|DICT|INTERRES
   115   59   60 1    
   116   59  125 1    
   117   60   61 1    
   118   60   62 1    
   119   60  126 1    
   120   61  127 1    
   121   61  128 1    
   122   61  129 1    
   123   62   63 2    
   124   62   64 am   BACKBONE|DICT|INTERRES
   125   64   65 1    
   126   64  130 1    
   127   65   66 1    
   128   65   69 1    
   129   65  131 1    
   130   66   67 am   BACKBONE|DICT|INTERRES
   131   66   68 2    
   132   67  132 1    
   133   67  133 1    
   134   69   70 1    
   135   69  134 1    
   136   69  135 1    
   137   70   71 1    
   138   71  136 1    
   139   71  137 1    
@<TRIPOS>SUBSTRUCTURE
     1 UNK         1 GROUP             0       ****    0 ROOT    
