@<TRIPOS>MOLECULE
3R137
137   139    1
SMALL
USER_CHARGES


@<TRIPOS>ATOM
      1 CA         25.4773   -0.5818   -7.0019 C.3       0 UNK        -0.2020 
      2 C          25.2830   -2.0819   -6.8642 C.2       0 UNK         0.4855 
      3 O          24.3855   -2.6467   -7.4894 O.2       0 UNK        -0.5197 
      4 N          26.0998   -2.7308   -6.0274 N.am      1 UNK        -0.4892 
      5 CA         26.0350   -4.1615   -5.7118 C.3       1 UNK         0.0835 
      6 C6         27.3938   -4.7257   -5.2050 C.3       12 UNK        -0.0855 
      7 S7         28.2633   -3.6669   -3.9960 S.3       12 UNK        -0.2931 
      8 C8         29.9977   -4.1892   -4.1967 C.3       12 UNK         0.0378 
      9 C9         30.9571   -3.1713   -3.5918 C.ar      12 UNK        -0.0802 
     10 C10        31.9601   -2.5816   -4.3717 C.ar      12 UNK        -0.0944 
     11 C11        32.8469   -1.6574   -3.8066 C.ar      12 UNK        -0.0787 
     12 C12        32.7068   -1.3054   -2.4610 C.ar      12 UNK        -0.0862 
     13 C13        31.6988   -1.8724   -1.6784 C.ar      12 UNK        -0.0733 
     14 C14        30.8447   -2.8227   -2.2423 C.ar      12 UNK        -0.0832 
     15 C15        31.5241   -1.4481   -0.2280 C.3       12 UNK         0.0240 
     16 S16        29.9079   -0.6583    0.0618 S.3       12 UNK        -0.2522 
     17 C17        29.9408    0.7472   -1.1101 C.3       12 UNK        -0.0967 
     18 CA         29.0665    0.5287   -2.3805 C.3       5 UNK         0.0660 
     19 N          27.7260    0.0467   -2.0160 N.am      5 UNK        -0.4015 
     20 C          26.8039   -0.5335   -2.7950 C.2       4 UNK         0.4946 
     21 O          26.8804   -0.5955   -4.0250 O.2       4 UNK        -0.5353 
     22 CA         25.6322   -1.2148   -2.0608 C.3       4 UNK         0.0277 
     23 CB         25.2914   -0.5814   -0.6909 C.3       4 UNK        -0.1981 
     24 N          24.4304   -1.3575   -2.8883 N.am      4 UNK        -0.4209 
     25 C          23.6230   -0.3861   -3.3426 C.2       3 UNK         0.4942 
     26 O          23.8152    0.8129   -3.1353 O.2       3 UNK        -0.5208 
     27 CA         22.3740   -0.8166   -4.1451 C.3       3 UNK         0.0250 
     28 CB         22.0868    0.1211   -5.3325 C.3       3 UNK        -0.1990 
     29 N          22.4603   -2.1958   -4.6338 N.am      3 UNK        -0.4232 
     30 C          22.0143   -3.2812   -3.9846 C.2       2 UNK         0.4993 
     31 O          21.3810   -3.2405   -2.9301 O.2       2 UNK        -0.5286 
     32 CA         22.3846   -4.6468   -4.5934 C.3       2 UNK         0.0209 
     33 CB         21.2720   -5.1417   -5.5314 C.3       2 UNK        -0.1931 
     34 N          23.6578   -4.6096   -5.3229 N.am      2 UNK        -0.4546 
     35 C          24.8544   -4.4104   -4.7510 C.2       1 UNK         0.5154 
     36 O          25.0105   -4.3300   -3.5317 O.2       1 UNK        -0.5181 
     37 C          29.0781    1.7785   -3.2983 C.2       5 UNK         0.5014 
     38 O          29.9102    2.6689   -3.1081 O.2       5 UNK        -0.5248 
     39 N          28.1579    1.8477   -4.2646 N.am      6 UNK        -0.4434 
     40 CA         28.0765    2.8978   -5.2769 C.3       6 UNK         0.0363 
     41 CB         26.6287    2.9817   -5.7874 C.3       6 UNK        -0.1936 
     42 C          29.0346    2.6019   -6.4391 C.2       6 UNK         0.5081 
     43 O          29.3833    1.4429   -6.6755 O.2       6 UNK        -0.5248 
     44 N          29.3850    3.6467   -7.2027 N.am      7 UNK        -0.4718 
     45 CA         30.2501    3.5666   -8.3890 C.3       7 UNK         0.0273 
     46 CB         30.4724    4.9742   -8.9619 C.3       7 UNK        -0.1935 
     47 C          29.7345    2.6124   -9.4827 C.2       7 UNK         0.5018 
     48 O          30.5433    2.0143  -10.1931 O.2       7 UNK        -0.5186 
     49 N          28.4068    2.4301   -9.5398 N.am      8 UNK        -0.4240 
     50 CA         27.6958    1.4599  -10.3775 C.3       8 UNK         0.0235 
     51 CB         26.1825    1.6681  -10.2032 C.3       8 UNK        -0.2000 
     52 C          28.0733   -0.0142  -10.1213 C.2       8 UNK         0.4941 
     53 O          27.8407   -0.8443  -10.9995 O.2       8 UNK        -0.5273 
     54 N          28.6869   -0.3184   -8.9662 N.am      9 UNK        -0.4262 
     55 CA         29.2645   -1.6281   -8.6415 C.3       9 UNK         0.0264 
     56 CB         29.3686   -1.7570   -7.1113 C.3       9 UNK        -0.1955 
     57 C          30.6500   -1.8598   -9.2851 C.2       9 UNK         0.5031 
     58 O          31.3146   -2.8317   -8.9243 O.2       9 UNK        -0.5390 
     59 N          31.0853   -0.9456  -10.1683 N.am      10 UNK        -0.4204 
     60 CA         32.4390   -0.7858  -10.7159 C.3       10 UNK         0.0237 
     61 CB         32.9221   -2.0464  -11.4654 C.3       10 UNK        -0.1985 
     62 C          33.4382   -0.2831   -9.6547 C.2       10 UNK         0.4970 
     63 O          34.6427   -0.5020   -9.7921 O.2       10 UNK        -0.4914 
     64 N          32.9151    0.3969   -8.6258 N.am      11 UNK        -0.4285 
     65 CA         33.6723    1.0109   -7.5292 C.3       11 UNK         0.1007 
     66 C          34.2080    2.4377   -7.8558 C.2       11 UNK         0.5703 
     67 N          33.8644    3.0337   -8.9929 N.am      11 UNK        -0.7361 
     68 O          34.9633    3.0106   -7.0752 O.2       11 UNK        -0.4986 
     69 C69        32.8507    0.9590   -6.2093 C.3       12 UNK        -0.0947 
     70 S70        33.9110    0.7455   -4.7449 S.3       12 UNK        -0.2240 
     71 C71        33.9911   -1.0712   -4.6237 C.3       12 UNK         0.0194 
     72 H72        26.5065   -0.3439   -7.2608 H         1 UNK         0.0906 
     73 H73        24.8288   -0.1797   -7.7795 H         1 UNK         0.0906 
     74 H74        25.2383   -0.0822   -6.0642 H         1 UNK         0.0906 
     75 H75        26.7380   -2.1953   -5.4447 H         1 UNK         0.3140 
     76 H76        25.8082   -4.6997   -6.6354 H         1 UNK         0.1085 
     77 H77        28.0508   -4.8570   -6.0659 H         1 UNK         0.0836 
     78 H78        27.2691   -5.7227   -4.7782 H         1 UNK         0.0836 
     79 H79        30.2209   -4.3431   -5.2525 H         1 UNK         0.0731 
     80 H80        30.1394   -5.1540   -3.7079 H         1 UNK         0.0731 
     81 H81        32.0611   -2.8537   -5.4138 H         1 UNK         0.1312 
     82 H82        33.3852   -0.5836   -2.0267 H         1 UNK         0.1406 
     83 H83        30.0657   -3.2670   -1.6372 H         1 UNK         0.1631 
     84 H84        32.3146   -0.7610    0.0782 H         1 UNK         0.0717 
     85 H85        31.6113   -2.3248    0.4150 H         1 UNK         0.0717 
     86 H86        29.5998    1.6304   -0.5663 H         1 UNK         0.0934 
     87 H87        30.9758    0.9536   -1.3900 H         1 UNK         0.0934 
     88 H88        29.5315   -0.2665   -2.9671 H         1 UNK         0.0739 
     89 H89        27.5492    0.0463   -1.0227 H         1 UNK         0.3093 
     90 H90        25.9688   -2.2354   -1.8710 H         1 UNK         0.0818 
     91 H91        26.1050   -0.7073    0.0242 H         1 UNK         0.0819 
     92 H92        25.0847    0.4862   -0.7754 H         1 UNK         0.0819 
     93 H93        24.4137   -1.0530   -0.2485 H         1 UNK         0.0819 
     94 H94        24.2199   -2.3128   -3.1489 H         1 UNK         0.3041 
     95 H95        21.5299   -0.7337   -3.4572 H         1 UNK         0.0784 
     96 H96        21.9782    1.1554   -5.0032 H         1 UNK         0.0793 
     97 H97        22.8817    0.0972   -6.0756 H         1 UNK         0.0793 
     98 H98        21.1576   -0.1526   -5.8326 H         1 UNK         0.0793 
     99 H99        22.9657   -2.3380   -5.4983 H         1 UNK         0.3024 
    100 H100       22.4846   -5.3567   -3.7687 H         1 UNK         0.1171 
    101 H101       21.1372   -4.4773   -6.3859 H         1 UNK         0.0786 
    102 H102       21.4892   -6.1398   -5.9123 H         1 UNK         0.0786 
    103 H103       20.3167   -5.1974   -5.0074 H         1 UNK         0.0786 
    104 H104       23.6031   -4.5927   -6.3335 H         1 UNK         0.2977 
    105 H105       27.5642    1.0292   -4.3919 H         1 UNK         0.3127 
    106 H106       28.3485    3.8546   -4.8260 H         1 UNK         0.0770 
    107 H107       26.5022    3.8160   -6.4782 H         1 UNK         0.0814 
    108 H108       25.9263    3.1326   -4.9672 H         1 UNK         0.0814 
    109 H109       26.3342    2.0752   -6.3150 H         1 UNK         0.0814 
    110 H110       29.0457    4.5654   -6.9533 H         1 UNK         0.2983 
    111 H111       31.2129    3.1782   -8.0552 H         1 UNK         0.0947 
    112 H112       31.1329    4.9419   -9.8299 H         1 UNK         0.0806 
    113 H113       30.9395    5.6322   -8.2289 H         1 UNK         0.0806 
    114 H114       29.5365    5.4344   -9.2810 H         1 UNK         0.0806 
    115 H115       27.8406    2.9731   -8.9049 H         1 UNK         0.3000 
    116 H116       27.9543    1.6759  -11.4163 H         1 UNK         0.0850 
    117 H117       25.8753    1.5467   -9.1646 H         1 UNK         0.0810 
    118 H118       25.6150    0.9513  -10.7987 H         1 UNK         0.0810 
    119 H119       25.8802    2.6642  -10.5272 H         1 UNK         0.0810 
    120 H120       28.8500    0.4153   -8.2808 H         1 UNK         0.3040 
    121 H121       28.5926   -2.4078   -9.0061 H         1 UNK         0.0766 
    122 H122       28.4485   -1.4713   -6.6071 H         1 UNK         0.0812 
    123 H123       30.1656   -1.1350   -6.7039 H         1 UNK         0.0812 
    124 H124       29.5853   -2.7858   -6.8291 H         1 UNK         0.0812 
    125 H125       30.4636   -0.1719  -10.3726 H         1 UNK         0.3205 
    126 H126       32.3633    0.0169  -11.4510 H         1 UNK         0.0754 
    127 H127       33.8374   -1.8404  -12.0217 H         1 UNK         0.0769 
    128 H128       32.1782   -2.3913  -12.1834 H         1 UNK         0.0769 
    129 H129       33.1399   -2.8691  -10.7840 H         1 UNK         0.0769 
    130 H130       31.9200    0.5614   -8.6221 H         1 UNK         0.2981 
    131 H131       34.5638    0.3968   -7.3878 H         1 UNK         0.0541 
    132 H132       33.2581    2.5742   -9.6534 H         1 UNK         0.3459 
    133 H133       34.2310    3.9501   -9.1957 H         1 UNK         0.3459 
    134 H134       32.1426    0.1291   -6.2217 H         1 UNK         0.0612 
    135 H135       32.2421    1.8560   -6.0811 H         1 UNK         0.0612 
    136 H136       34.9323   -1.3426   -4.1440 H         1 UNK         0.0624 
    137 H137       34.0244   -1.5045   -5.6247 H         1 UNK         0.0624 
@<TRIPOS>BOND
     1    1    2 1    
     2    1   72 1    
     3    1   73 1    
     4    1   74 1    
     5    2    3 2    
     6    2    4 am   BACKBONE|DICT|INTERRES
     7    4    5 1    
     8    4   75 1    
     9    5    6 1    
    10    5   35 1    
    11    5   76 1    
    12    6    7 1    
    13    6   77 1    
    14    6   78 1    
    15    7    8 1    
    16    8    9 1    
    17    8   79 1    
    18    8   80 1    
    19    9   10 ar   
    20    9   14 ar   
    21   10   11 ar   
    22   10   81 1    
    23   11   12 ar   
    24   11   71 1    
    25   12   13 ar   
    26   12   82 1    
    27   13   14 ar   
    28   13   15 1    
    29   14   83 1    
    30   15   16 1    
    31   15   84 1    
    32   15   85 1    
    33   16   17 1    
    34   17   18 1    
    35   17   86 1    
    36   17   87 1    
    37   18   19 1    
    38   18   37 1    
    39   18   88 1    
    40   19   20 am   BACKBONE|DICT|INTERRES
    41   19   89 1    
    42   20   21 2    
    43   20   22 1    
    44   22   23 1    
    45   22   24 1    
    46   22   90 1    
    47   23   91 1    
    48   23   92 1    
    49   23   93 1    
    50   24   25 am   BACKBONE|DICT|INTERRES
    51   24   94 1    
    52   25   26 2    
    53   25   27 1    
    54   27   28 1    
    55   27   29 1    
    56   27   95 1    
    57   28   96 1    
    58   28   97 1    
    59   28   98 1    
    60   29   30 am   BACKBONE|DICT|INTERRES
    61   29   99 1    
    62   30   31 2    
    63   30   32 1    
    64   32   33 1    
    65   32   34 1    
    66   32  100 1    
    67   33  101 1    
    68   33  102 1    
    69   33  103 1    
    70   34   35 am   BACKBONE|DICT|INTERRES
    71   34  104 1    
    72   35   36 2    
    73   37   38 2    
    74   37   39 am   BACKBONE|DICT|INTERRES
    75   39   40 1    
    76   39  105 1    
    77   40   41 1    
    78   40   42 1    
    79   40  106 1    
    80   41  107 1    
    81   41  108 1    
    82   41  109 1    
    83   42   43 2    
    84   42   44 am   BACKBONE|DICT|INTERRES
    85   44   45 1    
    86   44  110 1    
    87   45   46 1    
    88   45   47 1    
    89   45  111 1    
    90   46  112 1    
    91   46  113 1    
    92   46  114 1    
    93   47   48 2    
    94   47   49 am   BACKBONE|DICT|INTERRES
    95   49   50 1    
    96   49  115 1    
    97   50   51 1    
    98   50   52 1    
    99   50  116 1    
   100   51  117 1    
   101   51  118 1    
   102   51  119 1    
   103   52   53 2    
   104   52   54 am   BACKBONE|DICT|INTERRES
   105   54   55 1    
   106   54  120 1    
   107   55   56 1    
   108   55   57 1    
   109   55  121 1    
   110   56  122 1    
   111   56  123 1    
   112   56  124 1    
   113   57   58 2    
   114   57   59 am   BACKBONE|DICT|INTERRES
   115   59   60 1    
   116   59  125 1    
   117   60   61 1    
   118   60   62 1    
   119   60  126 1    
   120   61  127 1    
   121   61  128 1    
   122   61  129 1    
   123   62   63 2    
   124   62   64 am   BACKBONE|DICT|INTERRES
   125   64   65 1    
   126   64  130 1    
   127   65   66 1    
   128   65   69 1    
   129   65  131 1    
   130   66   67 am   BACKBONE|DICT|INTERRES
   131   66   68 2    
   132   67  132 1    
   133   67  133 1    
   134   69   70 1    
   135   69  134 1    
   136   69  135 1    
   137   70   71 1    
   138   71  136 1    
   139   71  137 1    
@<TRIPOS>SUBSTRUCTURE
     1 UNK         1 GROUP             0       ****    0 ROOT    
