@<TRIPOS>MOLECULE
3R137
137   139    1
SMALL
USER_CHARGES


@<TRIPOS>ATOM
      1 CA         26.9670   -5.9959   -1.7999 C.3       0 UNK        -0.2020 
      2 C          27.6490   -4.9923   -0.8815 C.2       0 UNK         0.4855 
      3 O          27.6486   -5.1796    0.3354 O.2       0 UNK        -0.5197 
      4 N          28.2316   -3.9390   -1.4630 N.am      1 UNK        -0.4892 
      5 CA         28.8648   -2.8225   -0.7592 C.3       1 UNK         0.0835 
      6 C6         30.3175   -2.5846   -1.2503 C.3       12 UNK        -0.0855 
      7 S7         31.5166   -3.8145   -0.6293 S.3       12 UNK        -0.2931 
      8 C8         31.3812   -5.2186   -1.7890 C.3       12 UNK         0.0378 
      9 C9         31.3794   -4.8122   -3.2573 C.ar      12 UNK        -0.0802 
     10 C10        32.4729   -4.1423   -3.8173 C.ar      12 UNK        -0.0944 
     11 C11        32.4663   -3.7821   -5.1688 C.ar      12 UNK        -0.0787 
     12 C12        31.3550   -4.0948   -5.9582 C.ar      12 UNK        -0.0862 
     13 C13        30.2533   -4.7568   -5.4083 C.ar      12 UNK        -0.0733 
     14 C14        30.2787   -5.1244   -4.0611 C.ar      12 UNK        -0.0832 
     15 C15        29.0334   -5.0694   -6.2673 C.3       12 UNK         0.0240 
     16 S16        27.5522   -4.1576   -5.7174 S.3       12 UNK        -0.2522 
     17 C17        28.1040   -2.4281   -5.8840 C.3       12 UNK        -0.0967 
     18 CA         27.2602   -1.6024   -6.8826 C.3       5 UNK         0.0660 
     19 N          25.8446   -1.5283   -6.5213 N.am      5 UNK        -0.4015 
     20 C          24.8810   -1.1415   -7.3701 C.2       4 UNK         0.4946 
     21 O          25.0902   -0.8570   -8.5504 O.2       4 UNK        -0.5353 
     22 CA         23.4569   -0.9938   -6.8041 C.3       4 UNK         0.0277 
     23 CB         22.6692   -2.3005   -6.9870 C.3       4 UNK        -0.1981 
     24 N          23.4201   -0.5930   -5.3933 N.am      4 UNK        -0.4209 
     25 C          23.9339    0.5458   -4.9066 C.2       3 UNK         0.4942 
     26 O          24.4757    1.3960   -5.6139 O.2       3 UNK        -0.5208 
     27 CA         23.8802    0.7657   -3.3801 C.3       3 UNK         0.0250 
     28 CB         23.1461   -0.3543   -2.6067 C.3       3 UNK        -0.1990 
     29 N          25.2136    0.9820   -2.7981 N.am      3 UNK        -0.4232 
     30 C          26.2822    0.1775   -2.9135 C.2       2 UNK         0.4993 
     31 O          26.2941   -0.8349   -3.6168 O.2       2 UNK        -0.5286 
     32 CA         27.5643    0.5713   -2.1426 C.3       2 UNK         0.0209 
     33 CB         27.3102    1.5114   -0.9425 C.3       2 UNK        -0.1931 
     34 N          28.3484   -0.6018   -1.7253 N.am      2 UNK        -0.4546 
     35 C          27.9269   -1.6120   -0.9449 C.2       1 UNK         0.5154 
     36 O          26.8270   -1.6300   -0.3872 O.2       1 UNK        -0.5181 
     37 C          27.8781   -0.2021   -7.0614 C.2       5 UNK         0.5014 
     38 O          28.8586   -0.0814   -7.7962 O.2       5 UNK        -0.5248 
     39 N          27.3384    0.8311   -6.3918 N.am      6 UNK        -0.4434 
     40 CA         27.8152    2.2103   -6.5334 C.3       6 UNK         0.0363 
     41 CB         27.3014    3.1041   -5.3945 C.3       6 UNK        -0.1936 
     42 C          27.4423    2.7887   -7.9032 C.2       6 UNK         0.5081 
     43 O          28.2793    3.4291   -8.5380 O.2       6 UNK        -0.5248 
     44 N          26.2204    2.4892   -8.3641 N.am      7 UNK        -0.4718 
     45 CA         25.7568    2.7986   -9.7181 C.3       7 UNK         0.0273 
     46 CB         24.2549    2.4906   -9.8273 C.3       7 UNK        -0.1935 
     47 C          26.5506    2.0470  -10.8029 C.2       7 UNK         0.5018 
     48 O          26.7852    2.6081  -11.8737 O.2       7 UNK        -0.5186 
     49 N          26.9524    0.8033  -10.5039 N.am      8 UNK        -0.4240 
     50 CA         27.7442   -0.0436  -11.3931 C.3       8 UNK         0.0235 
     51 CB         27.6137   -1.5150  -10.9656 C.3       8 UNK        -0.2000 
     52 C          29.2246    0.3678  -11.4715 C.2       8 UNK         0.4941 
     53 O          29.7395    0.5093  -12.5818 O.2       8 UNK        -0.5273 
     54 N          29.8968    0.4991  -10.3170 N.am      9 UNK        -0.4262 
     55 CA         31.3612    0.5549  -10.2396 C.3       9 UNK         0.0264 
     56 CB         31.9110   -0.8862  -10.1769 C.3       9 UNK        -0.1955 
     57 C          31.9051    1.4208   -9.0886 C.2       9 UNK         0.5031 
     58 O          33.0649    1.2399   -8.7150 O.2       9 UNK        -0.5390 
     59 N          31.1005    2.3420   -8.5372 N.am      10 UNK        -0.4204 
     60 CA         31.4276    3.3043   -7.4661 C.3       10 UNK         0.0237 
     61 CB         32.5866    4.2384   -7.8685 C.3       10 UNK        -0.1985 
     62 C          31.6662    2.6960   -6.0686 C.2       10 UNK         0.4970 
     63 O          31.2345    3.2981   -5.0852 O.2       10 UNK        -0.4914 
     64 N          32.3157    1.5292   -5.9900 N.am      11 UNK        -0.4285 
     65 CA         32.5256    0.7474   -4.7585 C.3       11 UNK         0.1007 
     66 C          31.2246    0.2079   -4.1022 C.2       11 UNK         0.5703 
     67 N          30.1602   -0.0138   -4.8565 N.am      11 UNK        -0.7361 
     68 O          31.1653    0.0173   -2.8911 O.2       11 UNK        -0.4986 
     69 C69        33.5791   -0.3766   -4.9547 C.3       12 UNK        -0.0947 
     70 S70        33.2803   -1.4309   -6.4182 S.3       12 UNK        -0.2240 
     71 C71        33.6719   -3.0962   -5.7959 C.3       12 UNK         0.0194 
     72 H72        26.9471   -5.6565   -2.8355 H         1 UNK         0.0906 
     73 H73        27.4882   -6.9521   -1.7642 H         1 UNK         0.0906 
     74 H74        25.9378   -6.1570   -1.4803 H         1 UNK         0.0906 
     75 H75        28.1451   -3.8179   -2.4623 H         1 UNK         0.3140 
     76 H76        28.8999   -3.0127    0.3159 H         1 UNK         0.1085 
     77 H77        30.3668   -2.5237   -2.3384 H         1 UNK         0.0836 
     78 H78        30.6831   -1.6264   -0.8768 H         1 UNK         0.0836 
     79 H79        32.2181   -5.8956   -1.6134 H         1 UNK         0.0731 
     80 H80        30.4830   -5.7857   -1.5426 H         1 UNK         0.0731 
     81 H81        33.3282   -3.9071   -3.1986 H         1 UNK         0.1312 
     82 H82        31.3498   -3.8140   -7.0027 H         1 UNK         0.1406 
     83 H83        29.4322   -5.6486   -3.6405 H         1 UNK         0.1631 
     84 H84        28.8275   -6.1397   -6.2228 H         1 UNK         0.0717 
     85 H85        29.2239   -4.8361   -7.3161 H         1 UNK         0.0717 
     86 H86        29.1485   -2.4149   -6.1981 H         1 UNK         0.0934 
     87 H87        28.0944   -1.9842   -4.8901 H         1 UNK         0.0934 
     88 H88        27.3237   -2.1038   -7.8496 H         1 UNK         0.0739 
     89 H89        25.6242   -1.6898   -5.5455 H         1 UNK         0.3093 
     90 H90        22.9601   -0.2105   -7.3808 H         1 UNK         0.0818 
     91 H91        21.6300   -2.1854   -6.6783 H         1 UNK         0.0819 
     92 H92        22.6616   -2.6071   -8.0341 H         1 UNK         0.0819 
     93 H93        23.1036   -3.1191   -6.4115 H         1 UNK         0.0819 
     94 H94        23.0070   -1.2463   -4.7435 H         1 UNK         0.3041 
     95 H95        23.3224    1.6914   -3.2314 H         1 UNK         0.0784 
     96 H96        22.1212   -0.4787   -2.9590 H         1 UNK         0.0793 
     97 H97        23.6539   -1.3161   -2.6931 H         1 UNK         0.0793 
     98 H98        23.0856   -0.1156   -1.5446 H         1 UNK         0.0793 
     99 H99        25.3089    1.8136   -2.2328 H         1 UNK         0.3024 
    100 H100       28.1933    1.1089   -2.8524 H         1 UNK         0.1171 
    101 H101       28.2343    1.7109   -0.3996 H         1 UNK         0.0786 
    102 H102       26.5975    1.0863   -0.2344 H         1 UNK         0.0786 
    103 H103       26.9230    2.4782   -1.2658 H         1 UNK         0.0786 
    104 H104       29.2869   -0.6498   -2.1064 H         1 UNK         0.2977 
    105 H105       26.4959    0.6898   -5.8464 H         1 UNK         0.3127 
    106 H106       28.9018    2.1919   -6.4650 H         1 UNK         0.0770 
    107 H107       26.2195    3.2282   -5.4199 H         1 UNK         0.0814 
    108 H108       27.7381    4.1011   -5.4667 H         1 UNK         0.0814 
    109 H109       27.5758    2.7082   -4.4192 H         1 UNK         0.0814 
    110 H110       25.5933    1.9660   -7.7664 H         1 UNK         0.2983 
    111 H111       25.9019    3.8681   -9.8861 H         1 UNK         0.0947 
    112 H112       23.8774    2.7412  -10.8197 H         1 UNK         0.0806 
    113 H113       23.6773    3.0690   -9.1059 H         1 UNK         0.0806 
    114 H114       24.0442    1.4343   -9.6561 H         1 UNK         0.0806 
    115 H115       26.6563    0.4011   -9.6236 H         1 UNK         0.3000 
    116 H116       27.3233    0.0438  -12.3975 H         1 UNK         0.0850 
    117 H117       28.1064   -2.1714  -11.6840 H         1 UNK         0.0810 
    118 H118       26.5694   -1.8232  -10.9071 H         1 UNK         0.0810 
    119 H119       28.0737   -1.6985   -9.9954 H         1 UNK         0.0810 
    120 H120       29.4122    0.3407   -9.4325 H         1 UNK         0.3040 
    121 H121       31.7501    1.0237  -11.1457 H         1 UNK         0.0766 
    122 H122       33.0017   -0.8990  -10.1777 H         1 UNK         0.0812 
    123 H123       31.5790   -1.3979   -9.2725 H         1 UNK         0.0812 
    124 H124       31.5865   -1.4759  -11.0341 H         1 UNK         0.0812 
    125 H125       30.1540    2.4230   -8.8934 H         1 UNK         0.3205 
    126 H126       30.5442    3.9357   -7.3676 H         1 UNK         0.0754 
    127 H127       32.7277    5.0231   -7.1241 H         1 UNK         0.0769 
    128 H128       32.3874    4.7287   -8.8214 H         1 UNK         0.0769 
    129 H129       33.5338    3.7056   -7.9560 H         1 UNK         0.0769 
    130 H130       32.6663    1.1212   -6.8526 H         1 UNK         0.2981 
    131 H131       32.9456    1.4413   -4.0281 H         1 UNK         0.0541 
    132 H132       30.2132    0.1253   -5.8544 H         1 UNK         0.3459 
    133 H133       29.3147   -0.3466   -4.4314 H         1 UNK         0.3459 
    134 H134       33.6533   -0.9967   -4.0591 H         1 UNK         0.0612 
    135 H135       34.5643    0.0744   -5.0807 H         1 UNK         0.0612 
    136 H136       34.0177   -3.7028   -6.6339 H         1 UNK         0.0624 
    137 H137       34.5076   -3.0413   -5.0966 H         1 UNK         0.0624 
@<TRIPOS>BOND
     1    1    2 1    
     2    1   72 1    
     3    1   73 1    
     4    1   74 1    
     5    2    3 2    
     6    2    4 am   BACKBONE|DICT|INTERRES
     7    4    5 1    
     8    4   75 1    
     9    5    6 1    
    10    5   35 1    
    11    5   76 1    
    12    6    7 1    
    13    6   77 1    
    14    6   78 1    
    15    7    8 1    
    16    8    9 1    
    17    8   79 1    
    18    8   80 1    
    19    9   10 ar   
    20    9   14 ar   
    21   10   11 ar   
    22   10   81 1    
    23   11   12 ar   
    24   11   71 1    
    25   12   13 ar   
    26   12   82 1    
    27   13   14 ar   
    28   13   15 1    
    29   14   83 1    
    30   15   16 1    
    31   15   84 1    
    32   15   85 1    
    33   16   17 1    
    34   17   18 1    
    35   17   86 1    
    36   17   87 1    
    37   18   19 1    
    38   18   37 1    
    39   18   88 1    
    40   19   20 am   BACKBONE|DICT|INTERRES
    41   19   89 1    
    42   20   21 2    
    43   20   22 1    
    44   22   23 1    
    45   22   24 1    
    46   22   90 1    
    47   23   91 1    
    48   23   92 1    
    49   23   93 1    
    50   24   25 am   BACKBONE|DICT|INTERRES
    51   24   94 1    
    52   25   26 2    
    53   25   27 1    
    54   27   28 1    
    55   27   29 1    
    56   27   95 1    
    57   28   96 1    
    58   28   97 1    
    59   28   98 1    
    60   29   30 am   BACKBONE|DICT|INTERRES
    61   29   99 1    
    62   30   31 2    
    63   30   32 1    
    64   32   33 1    
    65   32   34 1    
    66   32  100 1    
    67   33  101 1    
    68   33  102 1    
    69   33  103 1    
    70   34   35 am   BACKBONE|DICT|INTERRES
    71   34  104 1    
    72   35   36 2    
    73   37   38 2    
    74   37   39 am   BACKBONE|DICT|INTERRES
    75   39   40 1    
    76   39  105 1    
    77   40   41 1    
    78   40   42 1    
    79   40  106 1    
    80   41  107 1    
    81   41  108 1    
    82   41  109 1    
    83   42   43 2    
    84   42   44 am   BACKBONE|DICT|INTERRES
    85   44   45 1    
    86   44  110 1    
    87   45   46 1    
    88   45   47 1    
    89   45  111 1    
    90   46  112 1    
    91   46  113 1    
    92   46  114 1    
    93   47   48 2    
    94   47   49 am   BACKBONE|DICT|INTERRES
    95   49   50 1    
    96   49  115 1    
    97   50   51 1    
    98   50   52 1    
    99   50  116 1    
   100   51  117 1    
   101   51  118 1    
   102   51  119 1    
   103   52   53 2    
   104   52   54 am   BACKBONE|DICT|INTERRES
   105   54   55 1    
   106   54  120 1    
   107   55   56 1    
   108   55   57 1    
   109   55  121 1    
   110   56  122 1    
   111   56  123 1    
   112   56  124 1    
   113   57   58 2    
   114   57   59 am   BACKBONE|DICT|INTERRES
   115   59   60 1    
   116   59  125 1    
   117   60   61 1    
   118   60   62 1    
   119   60  126 1    
   120   61  127 1    
   121   61  128 1    
   122   61  129 1    
   123   62   63 2    
   124   62   64 am   BACKBONE|DICT|INTERRES
   125   64   65 1    
   126   64  130 1    
   127   65   66 1    
   128   65   69 1    
   129   65  131 1    
   130   66   67 am   BACKBONE|DICT|INTERRES
   131   66   68 2    
   132   67  132 1    
   133   67  133 1    
   134   69   70 1    
   135   69  134 1    
   136   69  135 1    
   137   70   71 1    
   138   71  136 1    
   139   71  137 1    
@<TRIPOS>SUBSTRUCTURE
     1 UNK         1 GROUP             0       ****    0 ROOT    
