@<TRIPOS>MOLECULE
3R137
137   139    1
SMALL
USER_CHARGES


@<TRIPOS>ATOM
      1 CA         24.6562   -4.1661   -2.5604 C.3       0 UNK        -0.2020 
      2 C          25.3118   -3.6565   -1.2846 C.2       0 UNK         0.4855 
      3 O          24.6142   -3.2570   -0.3525 O.2       0 UNK        -0.5197 
      4 N          26.6487   -3.6825   -1.2378 N.am      1 UNK        -0.4892 
      5 CA         27.4689   -3.2727   -0.0920 C.3       1 UNK         0.0835 
      6 C6         28.9316   -3.7772   -0.1785 C.3       12 UNK        -0.0855 
      7 S7         29.0194   -5.5854   -0.4098 S.3       12 UNK        -0.2931 
      8 C8         30.6781   -5.7895   -1.1362 C.3       12 UNK         0.0378 
      9 C9         30.8197   -5.1336   -2.5052 C.ar      12 UNK        -0.0802 
     10 C10        31.8369   -4.1987   -2.7297 C.ar      12 UNK        -0.0944 
     11 C11        32.0039   -3.6243   -3.9928 C.ar      12 UNK        -0.0787 
     12 C12        31.1514   -3.9925   -5.0332 C.ar      12 UNK        -0.0862 
     13 C13        30.1019   -4.8876   -4.8133 C.ar      12 UNK        -0.0733 
     14 C14        29.9513   -5.4701   -3.5511 C.ar      12 UNK        -0.0832 
     15 C15        29.1261   -5.2055   -5.9384 C.3       12 UNK         0.0240 
     16 S16        27.6464   -4.1402   -5.8678 S.3       12 UNK        -0.2522 
     17 C17        28.3700   -2.4745   -6.0663 C.3       12 UNK        -0.0967 
     18 CA         27.5567   -1.5387   -6.9871 C.3       5 UNK         0.0660 
     19 N          26.1653   -1.3924   -6.5574 N.am      5 UNK        -0.4015 
     20 C          25.1884   -0.8880   -7.3233 C.2       4 UNK         0.4946 
     21 O          25.3574   -0.5327   -8.4888 O.2       4 UNK        -0.5353 
     22 CA         23.8041   -0.6951   -6.6764 C.3       4 UNK         0.0277 
     23 CB         22.9396   -1.9486   -6.8821 C.3       4 UNK        -0.1981 
     24 N          23.8575   -0.3701   -5.2482 N.am      4 UNK        -0.4209 
     25 C          24.4990    0.6799   -4.7162 C.2       3 UNK         0.4942 
     26 O          25.0825    1.5308   -5.3883 O.2       3 UNK        -0.5208 
     27 CA         24.5629    0.7628   -3.1781 C.3       3 UNK         0.0250 
     28 CB         23.4519   -0.0413   -2.4671 C.3       3 UNK        -0.1990 
     29 N          25.8782    0.3776   -2.6429 N.am      3 UNK        -0.4232 
     30 C          26.5782   -0.7336   -2.9279 C.2       2 UNK         0.4993 
     31 O          26.2240   -1.5802   -3.7461 O.2       2 UNK        -0.5286 
     32 CA         27.8741   -0.9701   -2.1420 C.3       2 UNK         0.0209 
     33 CB         28.9778    0.0017   -2.5890 C.3       2 UNK        -0.1931 
     34 N          27.6355   -0.8173   -0.7041 N.am      2 UNK        -0.4546 
     35 C          27.4164   -1.7579    0.2319 C.2       1 UNK         0.5154 
     36 O          27.1892   -1.4282    1.3952 O.2       1 UNK        -0.5181 
     37 C          28.2670   -0.1738   -7.1098 C.2       5 UNK         0.5014 
     38 O          29.1463   -0.0284   -7.9609 O.2       5 UNK        -0.5248 
     39 N          27.8792    0.8082   -6.2803 N.am      6 UNK        -0.4434 
     40 CA         28.3758    2.1826   -6.3690 C.3       6 UNK         0.0363 
     41 CB         28.1662    2.9282   -5.0424 C.3       6 UNK        -0.1936 
     42 C          27.7304    2.9324   -7.5420 C.2       6 UNK         0.5081 
     43 O          28.4299    3.6669   -8.2370 O.2       6 UNK        -0.5248 
     44 N          26.4357    2.6843   -7.7921 N.am      7 UNK        -0.4718 
     45 CA         25.7135    3.1686   -8.9754 C.3       7 UNK         0.0273 
     46 CB         24.2168    2.8488   -8.8397 C.3       7 UNK        -0.1935 
     47 C          26.2827    2.6031  -10.2915 C.2       7 UNK         0.5018 
     48 O          26.3767    3.3366  -11.2757 O.2       7 UNK        -0.5186 
     49 N          26.7037    1.3300  -10.2669 N.am      8 UNK        -0.4240 
     50 CA         27.4403    0.6571  -11.3425 C.3       8 UNK         0.0235 
     51 CB         27.3387   -0.8640  -11.1395 C.3       8 UNK        -0.2000 
     52 C          28.9195    1.0848  -11.4551 C.2       8 UNK         0.4941 
     53 O          29.5831    0.6664  -12.4046 O.2       8 UNK        -0.5273 
     54 N          29.4106    1.8916  -10.5015 N.am      9 UNK        -0.4262 
     55 CA         30.7671    2.4379  -10.3943 C.3       9 UNK         0.0264 
     56 CB         31.0743    3.3895  -11.5710 C.3       9 UNK        -0.1955 
     57 C          31.8587    1.3713  -10.1773 C.2       9 UNK         0.5031 
     58 O          32.9850    1.5530  -10.6449 O.2       9 UNK        -0.5390 
     59 N          31.5320    0.2941   -9.4473 N.am      10 UNK        -0.4204 
     60 CA         32.4932   -0.7394   -9.0464 C.3       10 UNK         0.0237 
     61 CB         31.7433   -2.0164   -8.6375 C.3       10 UNK        -0.1985 
     62 C          33.4095   -0.2634   -7.9055 C.2       10 UNK         0.4970 
     63 O          34.5983   -0.5844   -7.9100 O.2       10 UNK        -0.4914 
     64 N          32.8413    0.5001   -6.9654 N.am      11 UNK        -0.4285 
     65 CA         33.5287    1.0934   -5.8081 C.3       11 UNK         0.1007 
     66 C          32.8353    2.3868   -5.2892 C.2       11 UNK         0.5703 
     67 N          32.0432    3.0772   -6.1025 N.am      11 UNK        -0.7361 
     68 O          33.0301    2.7920   -4.1458 O.2       11 UNK        -0.4986 
     69 C69        33.8698    0.0569   -4.6974 C.3       12 UNK        -0.0947 
     70 S70        32.4349   -0.9076   -4.1104 S.3       12 UNK        -0.2240 
     71 C71        33.0934   -2.5976   -4.2477 C.3       12 UNK         0.0194 
     72 H72        23.9271   -3.4453   -2.9267 H         1 UNK         0.0906 
     73 H73        25.3866   -4.3312   -3.3529 H         1 UNK         0.0906 
     74 H74        24.1401   -5.1063   -2.3686 H         1 UNK         0.0906 
     75 H75        27.1609   -4.0426   -2.0304 H         1 UNK         0.3140 
     76 H76        27.0273   -3.7701    0.7752 H         1 UNK         0.1085 
     77 H77        29.4670   -3.2810   -0.9883 H         1 UNK         0.0836 
     78 H78        29.4744   -3.5314    0.7365 H         1 UNK         0.0836 
     79 H79        30.8875   -6.8553   -1.2367 H         1 UNK         0.0731 
     80 H80        31.4175   -5.3972   -0.4361 H         1 UNK         0.0731 
     81 H81        32.5035   -3.9203   -1.9248 H         1 UNK         0.1312 
     82 H82        31.2952   -3.5554   -6.0103 H         1 UNK         0.1406 
     83 H83        29.1512   -6.1773   -3.3779 H         1 UNK         0.1631 
     84 H84        28.8143   -6.2490   -5.8742 H         1 UNK         0.0717 
     85 H85        29.6094   -5.0909   -6.9100 H         1 UNK         0.0717 
     86 H86        28.5051   -2.0422   -5.0742 H         1 UNK         0.0934 
     87 H87        29.3662   -2.5803   -6.4880 H         1 UNK         0.0934 
     88 H88        27.5459   -1.9861   -7.9828 H         1 UNK         0.0739 
     89 H89        25.9737   -1.6337   -5.5864 H         1 UNK         0.3093 
     90 H90        23.3200    0.1420   -7.1826 H         1 UNK         0.0818 
     91 H91        21.9247   -1.7971   -6.5138 H         1 UNK         0.0819 
     92 H92        22.8636   -2.1997   -7.9411 H         1 UNK         0.0819 
     93 H93        23.3582   -2.8166   -6.3707 H         1 UNK         0.0819 
     94 H94        23.4404   -1.0368   -4.6156 H         1 UNK         0.3041 
     95 H95        24.4187    1.8152   -2.9287 H         1 UNK         0.0784 
     96 H96        22.4639    0.2244   -2.8458 H         1 UNK         0.0793 
     97 H97        23.5790   -1.1170   -2.5843 H         1 UNK         0.0793 
     98 H98        23.4480    0.1668   -1.3970 H         1 UNK         0.0793 
     99 H99        26.2720    1.0253   -1.9762 H         1 UNK         0.3024 
    100 H100       28.2251   -1.9733   -2.3808 H         1 UNK         0.1171 
    101 H101       29.9290   -0.2442   -2.1161 H         1 UNK         0.0786 
    102 H102       29.1375   -0.0478   -3.6671 H         1 UNK         0.0786 
    103 H103       28.7417    1.0353   -2.3361 H         1 UNK         0.0786 
    104 H104       27.6019    0.1374   -0.3799 H         1 UNK         0.2977 
    105 H105       27.0921    0.6511   -5.6644 H         1 UNK         0.3127 
    106 H106       29.4502    2.1465   -6.5571 H         1 UNK         0.0770 
    107 H107       27.1175    2.9701   -4.7504 H         1 UNK         0.0814 
    108 H108       28.5210    3.9569   -5.1183 H         1 UNK         0.0814 
    109 H109       28.7253    2.4591   -4.2349 H         1 UNK         0.0814 
    110 H110       25.9167    2.1155   -7.1299 H         1 UNK         0.2983 
    111 H111       25.8277    4.2544   -9.0080 H         1 UNK         0.0947 
    112 H112       23.6518    3.2822   -9.6660 H         1 UNK         0.0806 
    113 H113       23.8045    3.2549   -7.9157 H         1 UNK         0.0806 
    114 H114       24.0292    1.7756   -8.8482 H         1 UNK         0.0806 
    115 H115       26.4836    0.7680   -9.4493 H         1 UNK         0.3000 
    116 H116       26.9601    0.9073  -12.2908 H         1 UNK         0.0850 
    117 H117       27.8040   -1.4022  -11.9663 H         1 UNK         0.0810 
    118 H118       26.3000   -1.1907  -11.0850 H         1 UNK         0.0810 
    119 H119       27.8392   -1.1796  -10.2242 H         1 UNK         0.0810 
    120 H120       28.7807    2.1841   -9.7643 H         1 UNK         0.3040 
    121 H121       30.7689    3.0429   -9.4870 H         1 UNK         0.0766 
    122 H122       31.1610    2.8519  -12.5156 H         1 UNK         0.0812 
    123 H123       32.0147    3.9187  -11.4121 H         1 UNK         0.0812 
    124 H124       30.2956    4.1440  -11.6836 H         1 UNK         0.0812 
    125 H125       30.5868    0.2125   -9.0726 H         1 UNK         0.3205 
    126 H126       33.1227   -0.9790   -9.9062 H         1 UNK         0.0754 
    127 H127       32.4417   -2.8221   -8.4075 H         1 UNK         0.0769 
    128 H128       31.0893   -2.3681   -9.4358 H         1 UNK         0.0769 
    129 H129       31.1333   -1.8508   -7.7512 H         1 UNK         0.0769 
    130 H130       31.8496    0.6800   -7.0174 H         1 UNK         0.2981 
    131 H131       34.4855    1.4664   -6.1778 H         1 UNK         0.0541 
    132 H132       31.9517    2.8328   -7.0732 H         1 UNK         0.3459 
    133 H133       31.6163    3.9211   -5.7549 H         1 UNK         0.3459 
    134 H134       34.3357    0.5411   -3.8377 H         1 UNK         0.0612 
    135 H135       34.6276   -0.6288   -5.0781 H         1 UNK         0.0612 
    136 H136       33.5113   -2.7464   -5.2449 H         1 UNK         0.0624 
    137 H137       33.9150   -2.7252   -3.5412 H         1 UNK         0.0624 
@<TRIPOS>BOND
     1    1    2 1    
     2    1   72 1    
     3    1   73 1    
     4    1   74 1    
     5    2    3 2    
     6    2    4 am   BACKBONE|DICT|INTERRES
     7    4    5 1    
     8    4   75 1    
     9    5    6 1    
    10    5   35 1    
    11    5   76 1    
    12    6    7 1    
    13    6   77 1    
    14    6   78 1    
    15    7    8 1    
    16    8    9 1    
    17    8   79 1    
    18    8   80 1    
    19    9   10 ar   
    20    9   14 ar   
    21   10   11 ar   
    22   10   81 1    
    23   11   12 ar   
    24   11   71 1    
    25   12   13 ar   
    26   12   82 1    
    27   13   14 ar   
    28   13   15 1    
    29   14   83 1    
    30   15   16 1    
    31   15   84 1    
    32   15   85 1    
    33   16   17 1    
    34   17   18 1    
    35   17   86 1    
    36   17   87 1    
    37   18   19 1    
    38   18   37 1    
    39   18   88 1    
    40   19   20 am   BACKBONE|DICT|INTERRES
    41   19   89 1    
    42   20   21 2    
    43   20   22 1    
    44   22   23 1    
    45   22   24 1    
    46   22   90 1    
    47   23   91 1    
    48   23   92 1    
    49   23   93 1    
    50   24   25 am   BACKBONE|DICT|INTERRES
    51   24   94 1    
    52   25   26 2    
    53   25   27 1    
    54   27   28 1    
    55   27   29 1    
    56   27   95 1    
    57   28   96 1    
    58   28   97 1    
    59   28   98 1    
    60   29   30 am   BACKBONE|DICT|INTERRES
    61   29   99 1    
    62   30   31 2    
    63   30   32 1    
    64   32   33 1    
    65   32   34 1    
    66   32  100 1    
    67   33  101 1    
    68   33  102 1    
    69   33  103 1    
    70   34   35 am   BACKBONE|DICT|INTERRES
    71   34  104 1    
    72   35   36 2    
    73   37   38 2    
    74   37   39 am   BACKBONE|DICT|INTERRES
    75   39   40 1    
    76   39  105 1    
    77   40   41 1    
    78   40   42 1    
    79   40  106 1    
    80   41  107 1    
    81   41  108 1    
    82   41  109 1    
    83   42   43 2    
    84   42   44 am   BACKBONE|DICT|INTERRES
    85   44   45 1    
    86   44  110 1    
    87   45   46 1    
    88   45   47 1    
    89   45  111 1    
    90   46  112 1    
    91   46  113 1    
    92   46  114 1    
    93   47   48 2    
    94   47   49 am   BACKBONE|DICT|INTERRES
    95   49   50 1    
    96   49  115 1    
    97   50   51 1    
    98   50   52 1    
    99   50  116 1    
   100   51  117 1    
   101   51  118 1    
   102   51  119 1    
   103   52   53 2    
   104   52   54 am   BACKBONE|DICT|INTERRES
   105   54   55 1    
   106   54  120 1    
   107   55   56 1    
   108   55   57 1    
   109   55  121 1    
   110   56  122 1    
   111   56  123 1    
   112   56  124 1    
   113   57   58 2    
   114   57   59 am   BACKBONE|DICT|INTERRES
   115   59   60 1    
   116   59  125 1    
   117   60   61 1    
   118   60   62 1    
   119   60  126 1    
   120   61  127 1    
   121   61  128 1    
   122   61  129 1    
   123   62   63 2    
   124   62   64 am   BACKBONE|DICT|INTERRES
   125   64   65 1    
   126   64  130 1    
   127   65   66 1    
   128   65   69 1    
   129   65  131 1    
   130   66   67 am   BACKBONE|DICT|INTERRES
   131   66   68 2    
   132   67  132 1    
   133   67  133 1    
   134   69   70 1    
   135   69  134 1    
   136   69  135 1    
   137   70   71 1    
   138   71  136 1    
   139   71  137 1    
@<TRIPOS>SUBSTRUCTURE
     1 UNK         1 GROUP             0       ****    0 ROOT    
