@<TRIPOS>MOLECULE
3R137
137   139    1
SMALL
USER_CHARGES


@<TRIPOS>ATOM
      1 CA         30.6967    1.1972    0.1822 C.3       0 UNK        -0.2020 
      2 C          30.4578   -0.2134   -0.3344 C.2       0 UNK         0.4855 
      3 O          31.3860   -0.8438   -0.8373 O.2       0 UNK        -0.5197 
      4 N          29.2232   -0.7091   -0.2135 N.am      1 UNK        -0.4892 
      5 CA         28.7561   -2.0042   -0.7032 C.3       1 UNK         0.0835 
      6 C6         29.2623   -3.1818    0.1749 C.3       12 UNK        -0.0855 
      7 S7         28.8808   -4.8485   -0.4756 S.3       12 UNK        -0.2931 
      8 C8         30.3630   -5.2495   -1.4566 C.3       12 UNK         0.0378 
      9 C9         30.3016   -4.6179   -2.8393 C.ar      12 UNK        -0.0802 
     10 C10        30.9534   -3.4102   -3.0916 C.ar      12 UNK        -0.0944 
     11 C11        30.8633   -2.8022   -4.3453 C.ar      12 UNK        -0.0787 
     12 C12        30.1568   -3.4376   -5.3711 C.ar      12 UNK        -0.0862 
     13 C13        29.5189   -4.6653   -5.1419 C.ar      12 UNK        -0.0733 
     14 C14        29.5917   -5.2419   -3.8690 C.ar      12 UNK        -0.0832 
     15 C15        28.7775   -5.4183   -6.2472 C.3       12 UNK         0.0240 
     16 S16        28.0024   -4.3670   -7.5196 S.3       12 UNK        -0.2522 
     17 C17        26.7051   -3.5293   -6.5513 C.3       12 UNK        -0.0967 
     18 CA         26.1374   -2.2982   -7.2986 C.3       5 UNK         0.0660 
     19 N          24.8528   -1.8725   -6.7483 N.am      5 UNK        -0.4015 
     20 C          23.8688   -1.3065   -7.4608 C.2       4 UNK         0.4946 
     21 O          23.9049   -1.1540   -8.6822 O.2       4 UNK        -0.5353 
     22 CA         22.6270   -0.8236   -6.6878 C.3       4 UNK         0.0277 
     23 CB         21.5234   -1.8933   -6.7236 C.3       4 UNK        -0.1981 
     24 N          22.9044   -0.4621   -5.2950 N.am      4 UNK        -0.4209 
     25 C          23.6644    0.5754   -4.9176 C.2       3 UNK         0.4942 
     26 O          24.1939    1.3593   -5.7036 O.2       3 UNK        -0.5208 
     27 CA         23.9231    0.7295   -3.4096 C.3       3 UNK         0.0250 
     28 CB         22.7853    1.5215   -2.7458 C.3       3 UNK        -0.1990 
     29 N          24.1255   -0.5377   -2.6933 N.am      3 UNK        -0.4232 
     30 C          25.0549   -1.4530   -3.0003 C.2       2 UNK         0.4993 
     31 O          25.7769   -1.3942   -3.9982 O.2       2 UNK        -0.5286 
     32 CA         25.2169   -2.6451   -2.0490 C.3       2 UNK         0.0209 
     33 CB         24.7857   -3.9503   -2.7380 C.3       2 UNK        -0.1931 
     34 N          26.6206   -2.7486   -1.6536 N.am      2 UNK        -0.4546 
     35 C          27.2235   -1.9096   -0.8030 C.2       1 UNK         0.5154 
     36 O          26.6184   -1.0633   -0.1354 O.2       1 UNK        -0.5181 
     37 C          27.1188   -1.1136   -7.2995 C.2       5 UNK         0.5014 
     38 O          27.6997   -0.8121   -8.3398 O.2       5 UNK        -0.5248 
     39 N          27.2587   -0.4361   -6.1501 N.am      6 UNK        -0.4434 
     40 CA         28.1745    0.6893   -5.9353 C.3       6 UNK         0.0363 
     41 CB         28.1613    1.0768   -4.4486 C.3       6 UNK        -0.1936 
     42 C          27.9131    1.9147   -6.8308 C.2       6 UNK         0.5081 
     43 O          28.8376    2.6923   -7.0644 O.2       6 UNK        -0.5248 
     44 N          26.6847    2.0564   -7.3442 N.am      7 UNK        -0.4718 
     45 CA         26.3146    3.0486   -8.3555 C.3       7 UNK         0.0273 
     46 CB         24.7817    3.1643   -8.3981 C.3       7 UNK        -0.1935 
     47 C          26.8650    2.7494   -9.7660 C.2       7 UNK         0.5018 
     48 O          26.8335    3.6477  -10.6087 O.2       7 UNK        -0.5186 
     49 N          27.3311    1.5183  -10.0218 N.am      8 UNK        -0.4240 
     50 CA         27.7864    1.0496  -11.3325 C.3       8 UNK         0.0235 
     51 CB         26.6100    0.3781  -12.0688 C.3       8 UNK        -0.2000 
     52 C          29.0138    0.1318  -11.1966 C.2       8 UNK         0.4941 
     53 O          29.1069   -0.8797  -11.8955 O.2       8 UNK        -0.5273 
     54 N          29.9405    0.5017  -10.3069 N.am      9 UNK        -0.4262 
     55 CA         31.1967   -0.1951  -10.0421 C.3       9 UNK         0.0264 
     56 CB         31.0033   -1.1654   -8.8608 C.3       9 UNK        -0.1955 
     57 C          32.2687    0.8494   -9.7180 C.2       9 UNK         0.5031 
     58 O          31.9269    1.9886   -9.3892 O.2       9 UNK        -0.5390 
     59 N          33.5448    0.4413   -9.7598 N.am      10 UNK        -0.4204 
     60 CA         34.6952    1.2772   -9.3843 C.3       10 UNK         0.0237 
     61 CB         36.0003    0.5250   -9.6916 C.3       10 UNK        -0.1985 
     62 C          34.6643    1.7303   -7.9115 C.2       10 UNK         0.4970 
     63 O          35.0914    2.8448   -7.6089 O.2       10 UNK        -0.4914 
     64 N          34.1273    0.8676   -7.0416 N.am      11 UNK        -0.4285 
     65 CA         33.7912    1.1538   -5.6406 C.3       11 UNK         0.1007 
     66 C          32.3993    1.8293   -5.4406 C.2       11 UNK         0.5703 
     67 N          31.6563    2.1564   -6.4908 N.am      11 UNK        -0.7361 
     68 O          31.9874    2.0664   -4.3080 O.2       11 UNK        -0.4986 
     69 C69        33.9834   -0.1054   -4.7507 C.3       12 UNK        -0.0947 
     70 S70        33.1432   -1.6127   -5.3561 S.3       12 UNK        -0.2240 
     71 C71        31.5128   -1.4481   -4.5731 C.3       12 UNK         0.0194 
     72 H72        31.0393    1.8389   -0.6295 H         1 UNK         0.0906 
     73 H73        29.7929    1.6365    0.6041 H         1 UNK         0.0906 
     74 H74        31.4633    1.1883    0.9565 H         1 UNK         0.0906 
     75 H75        28.4742   -0.1510    0.1827 H         1 UNK         0.3140 
     76 H76        29.1284   -2.1176   -1.7207 H         1 UNK         0.1085 
     77 H77        28.8406   -3.1053    1.1788 H         1 UNK         0.0836 
     78 H78        30.3424   -3.1096    0.3089 H         1 UNK         0.0836 
     79 H79        31.2632   -4.9381   -0.9244 H         1 UNK         0.0731 
     80 H80        30.4331   -6.3337   -1.5568 H         1 UNK         0.0731 
     81 H81        31.5094   -2.9271   -2.3002 H         1 UNK         0.1312 
     82 H82        30.1117   -2.9726   -6.3461 H         1 UNK         0.1406 
     83 H83        29.0990   -6.1858   -3.6765 H         1 UNK         0.1631 
     84 H84        28.0036   -6.0561   -5.8169 H         1 UNK         0.0717 
     85 H85        29.4868   -6.0845   -6.7396 H         1 UNK         0.0717 
     86 H86        25.9118   -4.2577   -6.3757 H         1 UNK         0.0934 
     87 H87        27.0872   -3.2563   -5.5655 H         1 UNK         0.0934 
     88 H88        25.9786   -2.5902   -8.3396 H         1 UNK         0.0739 
     89 H89        24.7786   -1.8864   -5.7383 H         1 UNK         0.3093 
     90 H90        22.2556    0.0690   -7.1962 H         1 UNK         0.0818 
     91 H91        20.6062   -1.5342   -6.2562 H         1 UNK         0.0819 
     92 H92        21.2758   -2.1635   -7.7513 H         1 UNK         0.0819 
     93 H93        21.8278   -2.8070   -6.2113 H         1 UNK         0.0819 
     94 H94        22.5094   -1.0535   -4.5782 H         1 UNK         0.3041 
     95 H95        24.8429    1.3075   -3.3011 H         1 UNK         0.0784 
     96 H96        22.6276    2.4756   -3.2510 H         1 UNK         0.0793 
     97 H97        21.8407    0.9768   -2.7757 H         1 UNK         0.0793 
     98 H98        23.0122    1.7446   -1.7030 H         1 UNK         0.0793 
     99 H99        23.5754   -0.6687   -1.8562 H         1 UNK         0.3024 
    100 H100       24.6038   -2.4949   -1.1573 H         1 UNK         0.1171 
    101 H101       23.7387   -3.9055   -3.0405 H         1 UNK         0.0786 
    102 H102       24.8928   -4.8041   -2.0686 H         1 UNK         0.0786 
    103 H103       25.3761   -4.1524   -3.6329 H         1 UNK         0.0786 
    104 H104       27.1869   -3.4140   -2.1609 H         1 UNK         0.2977 
    105 H105       26.7279   -0.7480   -5.3363 H         1 UNK         0.3127 
    106 H106       29.1752    0.3364   -6.1861 H         1 UNK         0.0770 
    107 H107       27.1772    1.4258   -4.1350 H         1 UNK         0.0814 
    108 H108       28.8750    1.8772   -4.2475 H         1 UNK         0.0814 
    109 H109       28.4365    0.2326   -3.8156 H         1 UNK         0.0814 
    110 H110       25.9541    1.4272   -7.0325 H         1 UNK         0.2983 
    111 H111       26.7219    4.0152   -8.0512 H         1 UNK         0.0947 
    112 H112       24.4612    3.8963   -9.1408 H         1 UNK         0.0806 
    113 H113       24.3828    3.4873   -7.4363 H         1 UNK         0.0806 
    114 H114       24.3134    2.2122   -8.6522 H         1 UNK         0.0806 
    115 H115       27.3682    0.8250   -9.2762 H         1 UNK         0.3000 
    116 H116       28.1203    1.8998  -11.9310 H         1 UNK         0.0850 
    117 H117       26.9038    0.0500  -13.0666 H         1 UNK         0.0810 
    118 H118       25.7730    1.0658  -12.1898 H         1 UNK         0.0810 
    119 H119       26.2492   -0.4970  -11.5263 H         1 UNK         0.0810 
    120 H120       29.8379    1.3795   -9.8117 H         1 UNK         0.3040 
    121 H121       31.5127   -0.7477  -10.9294 H         1 UNK         0.0766 
    122 H122       30.2258   -1.8989   -9.0764 H         1 UNK         0.0812 
    123 H123       30.7136   -0.6378   -7.9510 H         1 UNK         0.0812 
    124 H124       31.9170   -1.7191   -8.6425 H         1 UNK         0.0812 
    125 H125       33.7455   -0.5072  -10.0446 H         1 UNK         0.3205 
    126 H126       34.6653    2.1771  -10.0025 H         1 UNK         0.0754 
    127 H127       36.8697    1.1349   -9.4415 H         1 UNK         0.0769 
    128 H128       36.0760    0.2768  -10.7505 H         1 UNK         0.0769 
    129 H129       36.0781   -0.4019   -9.1218 H         1 UNK         0.0769 
    130 H130       33.8108   -0.0278   -7.3817 H         1 UNK         0.2981 
    131 H131       34.5049    1.8947   -5.2763 H         1 UNK         0.0541 
    132 H132       31.9874    2.0261   -7.4393 H         1 UNK         0.3459 
    133 H133       30.7409    2.5678   -6.3586 H         1 UNK         0.3459 
    134 H134       33.6971    0.0906   -3.7158 H         1 UNK         0.0612 
    135 H135       35.0479   -0.3397   -4.7071 H         1 UNK         0.0612 
    136 H136       31.6031   -0.9179   -3.6239 H         1 UNK         0.0624 
    137 H137       30.8763   -0.8317   -5.2063 H         1 UNK         0.0624 
@<TRIPOS>BOND
     1    1    2 1    
     2    1   72 1    
     3    1   73 1    
     4    1   74 1    
     5    2    3 2    
     6    2    4 am   BACKBONE|DICT|INTERRES
     7    4    5 1    
     8    4   75 1    
     9    5    6 1    
    10    5   35 1    
    11    5   76 1    
    12    6    7 1    
    13    6   77 1    
    14    6   78 1    
    15    7    8 1    
    16    8    9 1    
    17    8   79 1    
    18    8   80 1    
    19    9   10 ar   
    20    9   14 ar   
    21   10   11 ar   
    22   10   81 1    
    23   11   12 ar   
    24   11   71 1    
    25   12   13 ar   
    26   12   82 1    
    27   13   14 ar   
    28   13   15 1    
    29   14   83 1    
    30   15   16 1    
    31   15   84 1    
    32   15   85 1    
    33   16   17 1    
    34   17   18 1    
    35   17   86 1    
    36   17   87 1    
    37   18   19 1    
    38   18   37 1    
    39   18   88 1    
    40   19   20 am   BACKBONE|DICT|INTERRES
    41   19   89 1    
    42   20   21 2    
    43   20   22 1    
    44   22   23 1    
    45   22   24 1    
    46   22   90 1    
    47   23   91 1    
    48   23   92 1    
    49   23   93 1    
    50   24   25 am   BACKBONE|DICT|INTERRES
    51   24   94 1    
    52   25   26 2    
    53   25   27 1    
    54   27   28 1    
    55   27   29 1    
    56   27   95 1    
    57   28   96 1    
    58   28   97 1    
    59   28   98 1    
    60   29   30 am   BACKBONE|DICT|INTERRES
    61   29   99 1    
    62   30   31 2    
    63   30   32 1    
    64   32   33 1    
    65   32   34 1    
    66   32  100 1    
    67   33  101 1    
    68   33  102 1    
    69   33  103 1    
    70   34   35 am   BACKBONE|DICT|INTERRES
    71   34  104 1    
    72   35   36 2    
    73   37   38 2    
    74   37   39 am   BACKBONE|DICT|INTERRES
    75   39   40 1    
    76   39  105 1    
    77   40   41 1    
    78   40   42 1    
    79   40  106 1    
    80   41  107 1    
    81   41  108 1    
    82   41  109 1    
    83   42   43 2    
    84   42   44 am   BACKBONE|DICT|INTERRES
    85   44   45 1    
    86   44  110 1    
    87   45   46 1    
    88   45   47 1    
    89   45  111 1    
    90   46  112 1    
    91   46  113 1    
    92   46  114 1    
    93   47   48 2    
    94   47   49 am   BACKBONE|DICT|INTERRES
    95   49   50 1    
    96   49  115 1    
    97   50   51 1    
    98   50   52 1    
    99   50  116 1    
   100   51  117 1    
   101   51  118 1    
   102   51  119 1    
   103   52   53 2    
   104   52   54 am   BACKBONE|DICT|INTERRES
   105   54   55 1    
   106   54  120 1    
   107   55   56 1    
   108   55   57 1    
   109   55  121 1    
   110   56  122 1    
   111   56  123 1    
   112   56  124 1    
   113   57   58 2    
   114   57   59 am   BACKBONE|DICT|INTERRES
   115   59   60 1    
   116   59  125 1    
   117   60   61 1    
   118   60   62 1    
   119   60  126 1    
   120   61  127 1    
   121   61  128 1    
   122   61  129 1    
   123   62   63 2    
   124   62   64 am   BACKBONE|DICT|INTERRES
   125   64   65 1    
   126   64  130 1    
   127   65   66 1    
   128   65   69 1    
   129   65  131 1    
   130   66   67 am   BACKBONE|DICT|INTERRES
   131   66   68 2    
   132   67  132 1    
   133   67  133 1    
   134   69   70 1    
   135   69  134 1    
   136   69  135 1    
   137   70   71 1    
   138   71  136 1    
   139   71  137 1    
@<TRIPOS>SUBSTRUCTURE
     1 UNK         1 GROUP             0       ****    0 ROOT    
