@<TRIPOS>MOLECULE
3R137
137   139    1
SMALL
USER_CHARGES


@<TRIPOS>ATOM
      1 CA         28.6087   -3.6965    1.8643 C.3       0 UNK        -0.2020 
      2 C          28.3443   -2.9692    0.5552 C.2       0 UNK         0.4855 
      3 O          28.0764   -3.6180   -0.4567 O.2       0 UNK        -0.5197 
      4 N          28.4249   -1.6305    0.5692 N.am      1 UNK        -0.4892 
      5 CA         28.2012   -0.6843   -0.5394 C.3       1 UNK         0.0835 
      6 C6         29.1469   -0.8697   -1.7592 C.3       12 UNK        -0.0855 
      7 S7         30.9206   -0.6976   -1.3478 S.3       12 UNK        -0.2931 
      8 C8         31.5102   -2.4216   -1.2265 C.3       12 UNK         0.0378 
      9 C9         31.6256   -3.1126   -2.5788 C.ar      12 UNK        -0.0802 
     10 C10        32.8343   -3.0943   -3.2803 C.ar      12 UNK        -0.0944 
     11 C11        32.9590   -3.7656   -4.5012 C.ar      12 UNK        -0.0787 
     12 C12        31.8538   -4.4376   -5.0346 C.ar      12 UNK        -0.0862 
     13 C13        30.6350   -4.4493   -4.3481 C.ar      12 UNK        -0.0733 
     14 C14        30.5378   -3.8097   -3.1107 C.ar      12 UNK        -0.0832 
     15 C15        29.4176   -5.1562   -4.9277 C.3       12 UNK         0.0240 
     16 S16        28.7914   -4.3447   -6.4330 S.3       12 UNK        -0.2522 
     17 C17        28.5493   -2.6170   -5.8943 C.3       12 UNK        -0.0967 
     18 CA         27.6470   -1.8508   -6.8935 C.3       5 UNK         0.0660 
     19 N          26.2371   -2.1999   -6.7273 N.am      5 UNK        -0.4015 
     20 C          25.4082   -2.5438   -7.7213 C.2       4 UNK         0.4946 
     21 O          25.7543   -2.6764   -8.8961 O.2       4 UNK        -0.5353 
     22 CA         23.9283   -2.7721   -7.3540 C.3       4 UNK         0.0277 
     23 CB         23.6638   -4.2663   -7.1064 C.3       4 UNK        -0.1981 
     24 N          23.4716   -2.0033   -6.1915 N.am      4 UNK        -0.4209 
     25 C          23.4767   -0.6653   -6.1052 C.2       3 UNK         0.4942 
     26 O          23.8457    0.0778   -7.0121 O.2       3 UNK        -0.5208 
     27 CA         23.0558   -0.0478   -4.7615 C.3       3 UNK         0.0250 
     28 CB         21.5400    0.2054   -4.7438 C.3       3 UNK        -0.1990 
     29 N          23.4363   -0.8202   -3.5705 N.am      3 UNK        -0.4232 
     30 C          24.6643   -1.2715   -3.2753 C.2       2 UNK         0.4993 
     31 O          25.6316   -1.2040   -4.0403 O.2       2 UNK        -0.5286 
     32 CA         24.8226   -1.9632   -1.9131 C.3       2 UNK         0.0209 
     33 CB         24.5337   -3.4670   -2.0469 C.3       2 UNK        -0.1931 
     34 N          26.1696   -1.7910   -1.3702 N.am      2 UNK        -0.4546 
     35 C          26.7243   -0.6345   -0.9875 C.2       1 UNK         0.5154 
     36 O          26.1164    0.4365   -0.9587 O.2       1 UNK        -0.5181 
     37 C          27.8282   -0.3266   -6.7782 C.2       5 UNK         0.5014 
     38 O          28.5141    0.2591   -7.6158 O.2       5 UNK        -0.5248 
     39 N          27.1969    0.3036   -5.7761 N.am      6 UNK        -0.4434 
     40 CA         27.3436    1.7296   -5.4655 C.3       6 UNK         0.0363 
     41 CB         26.6763    2.0315   -4.1155 C.3       6 UNK        -0.1936 
     42 C          26.8341    2.6947   -6.5528 C.2       6 UNK         0.5081 
     43 O          27.2908    3.8373   -6.5860 O.2       6 UNK        -0.5248 
     44 N          25.9182    2.2431   -7.4232 N.am      7 UNK        -0.4718 
     45 CA         25.4614    3.0006   -8.5950 C.3       7 UNK         0.0273 
     46 CB         24.1330    2.4154   -9.1003 C.3       7 UNK        -0.1935 
     47 C          26.4939    3.0474   -9.7389 C.2       7 UNK         0.5018 
     48 O          26.3640    3.8993  -10.6200 O.2       7 UNK        -0.5186 
     49 N          27.4818    2.1423   -9.7206 N.am      8 UNK        -0.4240 
     50 CA         28.6091    2.1066  -10.6516 C.3       8 UNK         0.0235 
     51 CB         28.9043    0.6365  -11.0080 C.3       8 UNK        -0.2000 
     52 C          29.8208    2.8265  -10.0292 C.2       8 UNK         0.4941 
     53 O          29.6641    3.6123   -9.0903 O.2       8 UNK        -0.5273 
     54 N          31.0259    2.5576  -10.5483 N.am      9 UNK        -0.4262 
     55 CA         32.2976    3.1040  -10.0608 C.3       9 UNK         0.0264 
     56 CB         33.3558    2.9660  -11.1716 C.3       9 UNK        -0.1955 
     57 C          32.7364    2.4400   -8.7389 C.2       9 UNK         0.5031 
     58 O          33.7709    1.7705   -8.6994 O.2       9 UNK        -0.5390 
     59 N          31.9094    2.5967   -7.6952 N.am      10 UNK        -0.4204 
     60 CA         31.9739    2.0132   -6.3455 C.3       10 UNK         0.0237 
     61 CB         33.2625    2.4202   -5.6044 C.3       10 UNK        -0.1985 
     62 C          31.7658    0.4877   -6.3077 C.2       10 UNK         0.4970 
     63 O          31.0136    0.0106   -5.4592 O.2       10 UNK        -0.4914 
     64 N          32.4173   -0.2310   -7.2242 N.am      11 UNK        -0.4285 
     65 CA         32.2477   -1.6596   -7.4918 C.3       11 UNK         0.1007 
     66 C          31.4581   -1.8432   -8.8119 C.2       11 UNK         0.5703 
     67 N          30.5692   -2.8235   -8.8809 N.am      11 UNK        -0.7361 
     68 O          31.6828   -1.1384   -9.7947 O.2       11 UNK        -0.4986 
     69 C69        33.6128   -2.3882   -7.5853 C.3       12 UNK        -0.0947 
     70 S70        34.6309   -2.2152   -6.0816 S.3       12 UNK        -0.2240 
     71 C71        34.2994   -3.7827   -5.2210 C.3       12 UNK         0.0194 
     72 H72        29.4456   -4.3845    1.7470 H         1 UNK         0.0906 
     73 H73        27.7316   -4.2737    2.1554 H         1 UNK         0.0906 
     74 H74        28.8469   -3.0080    2.6748 H         1 UNK         0.0906 
     75 H75        28.6387   -1.1811    1.4493 H         1 UNK         0.3140 
     76 H76        28.4161    0.3009   -0.1212 H         1 UNK         0.1085 
     77 H77        28.9314   -0.1100   -2.5133 H         1 UNK         0.0836 
     78 H78        28.9568   -1.8168   -2.2557 H         1 UNK         0.0836 
     79 H79        32.4870   -2.4124   -0.7406 H         1 UNK         0.0731 
     80 H80        30.8642   -2.9970   -0.5667 H         1 UNK         0.0731 
     81 H81        33.6857   -2.5683   -2.8701 H         1 UNK         0.1312 
     82 H82        31.9385   -4.9496   -5.9834 H         1 UNK         0.1406 
     83 H83        29.6091   -3.8582   -2.5603 H         1 UNK         0.1631 
     84 H84        28.6097   -5.2068   -4.1959 H         1 UNK         0.0717 
     85 H85        29.6801   -6.1879   -5.1653 H         1 UNK         0.0717 
     86 H86        28.1265   -2.5964   -4.8877 H         1 UNK         0.0934 
     87 H87        29.5337   -2.1545   -5.8170 H         1 UNK         0.0934 
     88 H88        27.9734   -2.1089   -7.9033 H         1 UNK         0.0739 
     89 H89        25.8564   -2.0775   -5.7945 H         1 UNK         0.3093 
     90 H90        23.3305   -2.4541   -8.2108 H         1 UNK         0.0818 
     91 H91        23.9691   -4.8638   -7.9667 H         1 UNK         0.0819 
     92 H92        24.2158   -4.6363   -6.2413 H         1 UNK         0.0819 
     93 H93        22.6042   -4.4611   -6.9397 H         1 UNK         0.0819 
     94 H94        23.1573   -2.5303   -5.3899 H         1 UNK         0.3041 
     95 H95        23.5547    0.9193   -4.6881 H         1 UNK         0.0784 
     96 H96        21.2322    0.7945   -5.6092 H         1 UNK         0.0793 
     97 H97        20.9737   -0.7266   -4.7660 H         1 UNK         0.0793 
     98 H98        21.2395    0.7611   -3.8553 H         1 UNK         0.0793 
     99 H99        22.7047   -0.9551   -2.8871 H         1 UNK         0.3024 
    100 H100       24.1170   -1.5208   -1.2064 H         1 UNK         0.1171 
    101 H101       25.2241   -3.9487   -2.7412 H         1 UNK         0.0786 
    102 H102       24.6201   -3.9740   -1.0856 H         1 UNK         0.0786 
    103 H103       23.5223   -3.6440   -2.4152 H         1 UNK         0.0786 
    104 H104       26.7545   -2.6207   -1.3041 H         1 UNK         0.2977 
    105 H105       26.6333   -0.2428   -5.1250 H         1 UNK         0.3127 
    106 H106       28.4138    1.9201   -5.3570 H         1 UNK         0.0770 
    107 H107       27.1167    1.4370   -3.3164 H         1 UNK         0.0814 
    108 H108       26.8004    3.0801   -3.8421 H         1 UNK         0.0814 
    109 H109       25.6075    1.8245   -4.1366 H         1 UNK         0.0814 
    110 H110       25.5253    1.3159   -7.2976 H         1 UNK         0.2983 
    111 H111       25.2783    4.0324   -8.2867 H         1 UNK         0.0947 
    112 H112       24.2450    1.3773   -9.4161 H         1 UNK         0.0806 
    113 H113       23.7560    2.9780   -9.9554 H         1 UNK         0.0806 
    114 H114       23.3649    2.4508   -8.3276 H         1 UNK         0.0806 
    115 H115       27.5671    1.5341   -8.9123 H         1 UNK         0.3000 
    116 H116       28.3518    2.6358  -11.5713 H         1 UNK         0.0850 
    117 H117       29.6473    0.5530  -11.8014 H         1 UNK         0.0810 
    118 H118       28.0066    0.1296  -11.3626 H         1 UNK         0.0810 
    119 H119       29.2772    0.0803  -10.1477 H         1 UNK         0.0810 
    120 H120       31.0889    1.8693  -11.2848 H         1 UNK         0.3040 
    121 H121       32.1671    4.1697   -9.8595 H         1 UNK         0.0766 
    122 H122       33.5308    1.9221  -11.4357 H         1 UNK         0.0812 
    123 H123       34.3112    3.3865  -10.8548 H         1 UNK         0.0812 
    124 H124       33.0548    3.4959  -12.0755 H         1 UNK         0.0812 
    125 H125       31.0484    3.1011   -7.9026 H         1 UNK         0.3205 
    126 H126       31.1342    2.4515   -5.8034 H         1 UNK         0.0754 
    127 H127       34.1539    2.0013   -6.0723 H         1 UNK         0.0769 
    128 H128       33.2433    2.0647   -4.5733 H         1 UNK         0.0769 
    129 H129       33.3767    3.5037   -5.5729 H         1 UNK         0.0769 
    130 H130       32.9985    0.2751   -7.8872 H         1 UNK         0.2981 
    131 H131       31.6767   -2.1157   -6.6833 H         1 UNK         0.0541 
    132 H132       30.0733   -2.9647   -9.7461 H         1 UNK         0.3459 
    133 H133       30.3680   -3.4135   -8.0876 H         1 UNK         0.3459 
    134 H134       34.1962   -1.9943   -8.4198 H         1 UNK         0.0612 
    135 H135       33.4649   -3.4488   -7.7962 H         1 UNK         0.0612 
    136 H136       34.3567   -4.6143   -5.9248 H         1 UNK         0.0624 
    137 H137       35.0934   -3.9509   -4.4919 H         1 UNK         0.0624 
@<TRIPOS>BOND
     1    1    2 1    
     2    1   72 1    
     3    1   73 1    
     4    1   74 1    
     5    2    3 2    
     6    2    4 am   BACKBONE|DICT|INTERRES
     7    4    5 1    
     8    4   75 1    
     9    5    6 1    
    10    5   35 1    
    11    5   76 1    
    12    6    7 1    
    13    6   77 1    
    14    6   78 1    
    15    7    8 1    
    16    8    9 1    
    17    8   79 1    
    18    8   80 1    
    19    9   10 ar   
    20    9   14 ar   
    21   10   11 ar   
    22   10   81 1    
    23   11   12 ar   
    24   11   71 1    
    25   12   13 ar   
    26   12   82 1    
    27   13   14 ar   
    28   13   15 1    
    29   14   83 1    
    30   15   16 1    
    31   15   84 1    
    32   15   85 1    
    33   16   17 1    
    34   17   18 1    
    35   17   86 1    
    36   17   87 1    
    37   18   19 1    
    38   18   37 1    
    39   18   88 1    
    40   19   20 am   BACKBONE|DICT|INTERRES
    41   19   89 1    
    42   20   21 2    
    43   20   22 1    
    44   22   23 1    
    45   22   24 1    
    46   22   90 1    
    47   23   91 1    
    48   23   92 1    
    49   23   93 1    
    50   24   25 am   BACKBONE|DICT|INTERRES
    51   24   94 1    
    52   25   26 2    
    53   25   27 1    
    54   27   28 1    
    55   27   29 1    
    56   27   95 1    
    57   28   96 1    
    58   28   97 1    
    59   28   98 1    
    60   29   30 am   BACKBONE|DICT|INTERRES
    61   29   99 1    
    62   30   31 2    
    63   30   32 1    
    64   32   33 1    
    65   32   34 1    
    66   32  100 1    
    67   33  101 1    
    68   33  102 1    
    69   33  103 1    
    70   34   35 am   BACKBONE|DICT|INTERRES
    71   34  104 1    
    72   35   36 2    
    73   37   38 2    
    74   37   39 am   BACKBONE|DICT|INTERRES
    75   39   40 1    
    76   39  105 1    
    77   40   41 1    
    78   40   42 1    
    79   40  106 1    
    80   41  107 1    
    81   41  108 1    
    82   41  109 1    
    83   42   43 2    
    84   42   44 am   BACKBONE|DICT|INTERRES
    85   44   45 1    
    86   44  110 1    
    87   45   46 1    
    88   45   47 1    
    89   45  111 1    
    90   46  112 1    
    91   46  113 1    
    92   46  114 1    
    93   47   48 2    
    94   47   49 am   BACKBONE|DICT|INTERRES
    95   49   50 1    
    96   49  115 1    
    97   50   51 1    
    98   50   52 1    
    99   50  116 1    
   100   51  117 1    
   101   51  118 1    
   102   51  119 1    
   103   52   53 2    
   104   52   54 am   BACKBONE|DICT|INTERRES
   105   54   55 1    
   106   54  120 1    
   107   55   56 1    
   108   55   57 1    
   109   55  121 1    
   110   56  122 1    
   111   56  123 1    
   112   56  124 1    
   113   57   58 2    
   114   57   59 am   BACKBONE|DICT|INTERRES
   115   59   60 1    
   116   59  125 1    
   117   60   61 1    
   118   60   62 1    
   119   60  126 1    
   120   61  127 1    
   121   61  128 1    
   122   61  129 1    
   123   62   63 2    
   124   62   64 am   BACKBONE|DICT|INTERRES
   125   64   65 1    
   126   64  130 1    
   127   65   66 1    
   128   65   69 1    
   129   65  131 1    
   130   66   67 am   BACKBONE|DICT|INTERRES
   131   66   68 2    
   132   67  132 1    
   133   67  133 1    
   134   69   70 1    
   135   69  134 1    
   136   69  135 1    
   137   70   71 1    
   138   71  136 1    
   139   71  137 1    
@<TRIPOS>SUBSTRUCTURE
     1 UNK         1 GROUP             0       ****    0 ROOT    
