@<TRIPOS>MOLECULE
3R137
137   139    1
SMALL
USER_CHARGES


@<TRIPOS>ATOM
      1 CA         25.3002   -6.1793   -5.7223 C.3       0 UNK        -0.2020 
      2 C          25.4761   -5.5928   -4.3303 C.2       0 UNK         0.4855 
      3 O          24.4954   -5.1857   -3.7072 O.2       0 UNK        -0.5197 
      4 N          26.7247   -5.5374   -3.8490 N.am      1 UNK        -0.4892 
      5 CA         27.1427   -5.0091   -2.5445 C.3       1 UNK         0.0835 
      6 C6         28.6649   -5.2205   -2.3609 C.3       12 UNK        -0.0855 
      7 S7         29.2436   -4.9050   -0.6615 S.3       12 UNK        -0.2931 
      8 C8         30.9284   -4.2869   -0.9791 C.3       12 UNK         0.0378 
      9 C9         30.9326   -2.8985   -1.6064 C.ar      12 UNK        -0.0802 
     10 C10        31.3433   -2.7147   -2.9318 C.ar      12 UNK        -0.0944 
     11 C11        31.3886   -1.4319   -3.4862 C.ar      12 UNK        -0.0787 
     12 C12        31.0326   -0.3314   -2.7033 C.ar      12 UNK        -0.0862 
     13 C13        30.5741   -0.5039   -1.3933 C.ar      12 UNK        -0.0733 
     14 C14        30.5413   -1.7910   -0.8482 C.ar      12 UNK        -0.0832 
     15 C15        30.1036    0.6820   -0.5532 C.3       12 UNK         0.0240 
     16 S16        29.1013    1.9108   -1.4663 S.3       12 UNK        -0.2522 
     17 C17        27.8636    0.8772   -2.3243 C.3       12 UNK        -0.0967 
     18 CA         28.0213    0.9663   -3.8675 C.3       5 UNK         0.0660 
     19 N          27.7289   -0.3064   -4.5312 N.am      5 UNK        -0.4015 
     20 C          27.9137   -0.5603   -5.8346 C.2       4 UNK         0.4946 
     21 O          28.4482    0.2221   -6.6188 O.2       4 UNK        -0.5353 
     22 CA         27.3470   -1.8849   -6.3701 C.3       4 UNK         0.0277 
     23 CB         28.3448   -3.0400   -6.1793 C.3       4 UNK        -0.1981 
     24 N          26.0582   -2.2048   -5.7504 N.am      4 UNK        -0.4209 
     25 C          24.9235   -1.5332   -6.0036 C.2       3 UNK         0.4942 
     26 O          24.8341   -0.6475   -6.8525 O.2       3 UNK        -0.5208 
     27 CA         23.6962   -1.8592   -5.1355 C.3       3 UNK         0.0250 
     28 CB         22.8396   -2.9585   -5.7816 C.3       3 UNK        -0.1990 
     29 N          24.0611   -2.2398   -3.7685 N.am      3 UNK        -0.4232 
     30 C          24.5398   -1.3745   -2.8609 C.2       2 UNK         0.4993 
     31 O          24.6677   -0.1688   -3.0736 O.2       2 UNK        -0.5286 
     32 CA         25.0188   -1.9532   -1.5166 C.3       2 UNK         0.0209 
     33 CB         23.8565   -2.0236   -0.5142 C.3       2 UNK        -0.1931 
     34 N          25.6413   -3.2757   -1.6429 N.am      2 UNK        -0.4546 
     35 C          26.7270   -3.5301   -2.3867 C.2       1 UNK         0.5154 
     36 O          27.3390   -2.6558   -3.0009 O.2       1 UNK        -0.5181 
     37 C          27.2031    2.1320   -4.4601 C.2       5 UNK         0.5014 
     38 O          27.7709    3.1883   -4.7411 O.2       5 UNK        -0.5248 
     39 N          25.8966    1.9078   -4.6694 N.am      6 UNK        -0.4434 
     40 CA         24.9813    2.8538   -5.3130 C.3       6 UNK         0.0363 
     41 CB         23.5365    2.3456   -5.1861 C.3       6 UNK        -0.1936 
     42 C          25.3345    3.1317   -6.7854 C.2       6 UNK         0.5081 
     43 O          25.2644    4.2850   -7.2114 O.2       6 UNK        -0.5248 
     44 N          25.7162    2.0844   -7.5320 N.am      7 UNK        -0.4718 
     45 CA         26.1823    2.1835   -8.9192 C.3       7 UNK         0.0273 
     46 CB         26.2422    0.7803   -9.5439 C.3       7 UNK        -0.1935 
     47 C          27.5465    2.8824   -9.0493 C.2       7 UNK         0.5018 
     48 O          27.7746    3.5766  -10.0411 O.2       7 UNK        -0.5186 
     49 N          28.4291    2.6676   -8.0628 N.am      8 UNK        -0.4240 
     50 CA         29.7918    3.1893   -7.8957 C.3       8 UNK         0.0235 
     51 CB         29.8167    4.7289   -7.8460 C.3       8 UNK        -0.2000 
     52 C          30.7986    2.6382   -8.9177 C.2       8 UNK         0.4941 
     53 O          31.8500    2.1388   -8.5181 O.2       8 UNK        -0.5273 
     54 N          30.4517    2.6879  -10.2110 N.am      9 UNK        -0.4262 
     55 CA         31.2421    2.1611  -11.3303 C.3       9 UNK         0.0264 
     56 CB         30.5506    2.5253  -12.6534 C.3       9 UNK        -0.1955 
     57 C          31.4896    0.6434  -11.2515 C.2       9 UNK         0.5031 
     58 O          32.5093    0.1674  -11.7520 O.2       9 UNK        -0.5390 
     59 N          30.5800   -0.0799  -10.5832 N.am      10 UNK        -0.4204 
     60 CA         30.6697   -1.5111  -10.2861 C.3       10 UNK         0.0237 
     61 CB         29.3558   -1.9595   -9.6295 C.3       10 UNK        -0.1985 
     62 C          31.8741   -1.9016   -9.4060 C.2       10 UNK         0.4970 
     63 O          32.2926   -3.0585   -9.4589 O.2       10 UNK        -0.4914 
     64 N          32.4192   -0.9480   -8.6365 N.am      11 UNK        -0.4285 
     65 CA         33.6762   -1.1030   -7.8885 C.3       11 UNK         0.1007 
     66 C          34.9567   -1.0008   -8.7722 C.2       11 UNK         0.5703 
     67 N          34.8732   -0.6470  -10.0509 N.am      11 UNK        -0.7361 
     68 O          36.0549   -1.2630   -8.2876 O.2       11 UNK        -0.4986 
     69 C69        33.7242   -0.1387   -6.6649 C.3       12 UNK        -0.0947 
     70 S70        33.6047   -1.0085   -5.0694 S.3       12 UNK        -0.2240 
     71 C71        31.8054   -1.2221   -4.9327 C.3       12 UNK         0.0194 
     72 H72        25.2339   -5.3831   -6.4631 H         1 UNK         0.0906 
     73 H73        26.1318   -6.8294   -5.9935 H         1 UNK         0.0906 
     74 H74        24.3850   -6.7690   -5.7708 H         1 UNK         0.0906 
     75 H75        27.4771   -5.8825   -4.4278 H         1 UNK         0.3140 
     76 H76        26.6267   -5.5947   -1.7805 H         1 UNK         0.1085 
     77 H77        28.9275   -6.2532   -2.5967 H         1 UNK         0.0836 
     78 H78        29.2210   -4.6043   -3.0689 H         1 UNK         0.0836 
     79 H79        31.4620   -5.0010   -1.6085 H         1 UNK         0.0731 
     80 H80        31.4724   -4.2506   -0.0341 H         1 UNK         0.0731 
     81 H81        31.6348   -3.5664   -3.5310 H         1 UNK         0.1312 
     82 H82        31.0872    0.6616   -3.1264 H         1 UNK         0.1406 
     83 H83        30.2056   -1.9383    0.1695 H         1 UNK         0.1631 
     84 H84        30.9768    1.1836   -0.1345 H         1 UNK         0.0717 
     85 H85        29.5123    0.3329    0.2948 H         1 UNK         0.0717 
     86 H86        27.9761   -0.1540   -1.9874 H         1 UNK         0.0934 
     87 H87        26.8645    1.1719   -1.9968 H         1 UNK         0.0934 
     88 H88        29.0653    1.1754   -4.1055 H         1 UNK         0.0739 
     89 H89        27.3802   -1.0602   -3.9436 H         1 UNK         0.3093 
     90 H90        27.1765   -1.7649   -7.4415 H         1 UNK         0.0818 
     91 H91        28.5987   -3.2002   -5.1325 H         1 UNK         0.0819 
     92 H92        27.9513   -3.9747   -6.5785 H         1 UNK         0.0819 
     93 H93        29.2797   -2.8344   -6.7012 H         1 UNK         0.0819 
     94 H94        26.0720   -2.8656   -4.9871 H         1 UNK         0.3041 
     95 H95        23.0859   -0.9554   -5.0799 H         1 UNK         0.0784 
     96 H96        22.5197   -2.6634   -6.7819 H         1 UNK         0.0793 
     97 H97        23.3831   -3.8970   -5.8790 H         1 UNK         0.0793 
     98 H98        21.9393   -3.1528   -5.1984 H         1 UNK         0.0793 
     99 H99        24.0272   -3.2294   -3.5390 H         1 UNK         0.3024 
    100 H100       25.7727   -1.2695   -1.1204 H         1 UNK         0.1171 
    101 H101       24.1998   -2.3435    0.4698 H         1 UNK         0.0786 
    102 H102       23.3894   -1.0454   -0.3900 H         1 UNK         0.0786 
    103 H103       23.0805   -2.7165   -0.8421 H         1 UNK         0.0786 
    104 H104       25.1567   -4.0493   -1.2101 H         1 UNK         0.2977 
    105 H105       25.4910    1.0412   -4.3239 H         1 UNK         0.3127 
    106 H106       25.0556    3.7995   -4.7720 H         1 UNK         0.0770 
    107 H107       23.3906    1.4062   -5.7190 H         1 UNK         0.0814 
    108 H108       22.8328    3.0677   -5.6020 H         1 UNK         0.0814 
    109 H109       23.2607    2.1862   -4.1435 H         1 UNK         0.0814 
    110 H110       25.6637    1.1523   -7.1313 H         1 UNK         0.2983 
    111 H111       25.4550    2.7765   -9.4781 H         1 UNK         0.0947 
    112 H112       26.5604    0.8282  -10.5862 H         1 UNK         0.0806 
    113 H113       25.2652    0.2968   -9.5254 H         1 UNK         0.0806 
    114 H114       26.9435    0.1338   -9.0164 H         1 UNK         0.0806 
    115 H115       28.1669    1.9787   -7.3614 H         1 UNK         0.3000 
    116 H116       30.1144    2.8285   -6.9173 H         1 UNK         0.0850 
    117 H117       30.8197    5.0932   -7.6204 H         1 UNK         0.0810 
    118 H118       29.1517    5.1064   -7.0688 H         1 UNK         0.0810 
    119 H119       29.5147    5.1775   -8.7926 H         1 UNK         0.0810 
    120 H120       29.5494    3.1058  -10.4290 H         1 UNK         0.3040 
    121 H121       32.2176    2.6510  -11.3037 H         1 UNK         0.0766 
    122 H122       30.4519    3.6052  -12.7651 H         1 UNK         0.0812 
    123 H123       29.5534    2.0885  -12.7216 H         1 UNK         0.0812 
    124 H124       31.1254    2.1638  -13.5074 H         1 UNK         0.0812 
    125 H125       29.7838    0.4105  -10.2042 H         1 UNK         0.3205 
    126 H126       30.7795   -2.0392  -11.2355 H         1 UNK         0.0754 
    127 H127       29.3795   -3.0218   -9.3818 H         1 UNK         0.0769 
    128 H128       28.5040   -1.8010  -10.2913 H         1 UNK         0.0769 
    129 H129       29.1726   -1.4094   -8.7073 H         1 UNK         0.0769 
    130 H130       32.0413   -0.0084   -8.6664 H         1 UNK         0.2981 
    131 H131       33.6959   -2.1283   -7.5142 H         1 UNK         0.0541 
    132 H132       33.9838   -0.4287  -10.4855 H         1 UNK         0.3459 
    133 H133       35.7179   -0.5957  -10.5973 H         1 UNK         0.3459 
    134 H134       32.9366    0.6136   -6.7111 H         1 UNK         0.0612 
    135 H135       34.6508    0.4379   -6.6352 H         1 UNK         0.0612 
    136 H136       31.4965   -2.0700   -5.5458 H         1 UNK         0.0624 
    137 H137       31.2915   -0.3488   -5.3384 H         1 UNK         0.0624 
@<TRIPOS>BOND
     1    1    2 1    
     2    1   72 1    
     3    1   73 1    
     4    1   74 1    
     5    2    3 2    
     6    2    4 am   BACKBONE|DICT|INTERRES
     7    4    5 1    
     8    4   75 1    
     9    5    6 1    
    10    5   35 1    
    11    5   76 1    
    12    6    7 1    
    13    6   77 1    
    14    6   78 1    
    15    7    8 1    
    16    8    9 1    
    17    8   79 1    
    18    8   80 1    
    19    9   10 ar   
    20    9   14 ar   
    21   10   11 ar   
    22   10   81 1    
    23   11   12 ar   
    24   11   71 1    
    25   12   13 ar   
    26   12   82 1    
    27   13   14 ar   
    28   13   15 1    
    29   14   83 1    
    30   15   16 1    
    31   15   84 1    
    32   15   85 1    
    33   16   17 1    
    34   17   18 1    
    35   17   86 1    
    36   17   87 1    
    37   18   19 1    
    38   18   37 1    
    39   18   88 1    
    40   19   20 am   BACKBONE|DICT|INTERRES
    41   19   89 1    
    42   20   21 2    
    43   20   22 1    
    44   22   23 1    
    45   22   24 1    
    46   22   90 1    
    47   23   91 1    
    48   23   92 1    
    49   23   93 1    
    50   24   25 am   BACKBONE|DICT|INTERRES
    51   24   94 1    
    52   25   26 2    
    53   25   27 1    
    54   27   28 1    
    55   27   29 1    
    56   27   95 1    
    57   28   96 1    
    58   28   97 1    
    59   28   98 1    
    60   29   30 am   BACKBONE|DICT|INTERRES
    61   29   99 1    
    62   30   31 2    
    63   30   32 1    
    64   32   33 1    
    65   32   34 1    
    66   32  100 1    
    67   33  101 1    
    68   33  102 1    
    69   33  103 1    
    70   34   35 am   BACKBONE|DICT|INTERRES
    71   34  104 1    
    72   35   36 2    
    73   37   38 2    
    74   37   39 am   BACKBONE|DICT|INTERRES
    75   39   40 1    
    76   39  105 1    
    77   40   41 1    
    78   40   42 1    
    79   40  106 1    
    80   41  107 1    
    81   41  108 1    
    82   41  109 1    
    83   42   43 2    
    84   42   44 am   BACKBONE|DICT|INTERRES
    85   44   45 1    
    86   44  110 1    
    87   45   46 1    
    88   45   47 1    
    89   45  111 1    
    90   46  112 1    
    91   46  113 1    
    92   46  114 1    
    93   47   48 2    
    94   47   49 am   BACKBONE|DICT|INTERRES
    95   49   50 1    
    96   49  115 1    
    97   50   51 1    
    98   50   52 1    
    99   50  116 1    
   100   51  117 1    
   101   51  118 1    
   102   51  119 1    
   103   52   53 2    
   104   52   54 am   BACKBONE|DICT|INTERRES
   105   54   55 1    
   106   54  120 1    
   107   55   56 1    
   108   55   57 1    
   109   55  121 1    
   110   56  122 1    
   111   56  123 1    
   112   56  124 1    
   113   57   58 2    
   114   57   59 am   BACKBONE|DICT|INTERRES
   115   59   60 1    
   116   59  125 1    
   117   60   61 1    
   118   60   62 1    
   119   60  126 1    
   120   61  127 1    
   121   61  128 1    
   122   61  129 1    
   123   62   63 2    
   124   62   64 am   BACKBONE|DICT|INTERRES
   125   64   65 1    
   126   64  130 1    
   127   65   66 1    
   128   65   69 1    
   129   65  131 1    
   130   66   67 am   BACKBONE|DICT|INTERRES
   131   66   68 2    
   132   67  132 1    
   133   67  133 1    
   134   69   70 1    
   135   69  134 1    
   136   69  135 1    
   137   70   71 1    
   138   71  136 1    
   139   71  137 1    
@<TRIPOS>SUBSTRUCTURE
     1 UNK         1 GROUP             0       ****    0 ROOT    
