@<TRIPOS>MOLECULE
3R137
137   139    1
SMALL
USER_CHARGES


@<TRIPOS>ATOM
      1 CA         23.9191   -2.6626    0.2390 C.3       0 UNK        -0.2020 
      2 C          25.3233   -2.2485   -0.1713 C.2       0 UNK         0.4855 
      3 O          25.6826   -1.0796   -0.0266 O.2       0 UNK        -0.5197 
      4 N          26.1242   -3.1890   -0.6914 N.am      1 UNK        -0.4892 
      5 CA         27.4970   -2.9435   -1.1469 C.3       1 UNK         0.0835 
      6 C6         28.2489   -4.2592   -1.4613 C.3       12 UNK        -0.0855 
      7 S7         30.0460   -4.0820   -1.1970 S.3       12 UNK        -0.2931 
      8 C8         30.7242   -5.3156   -2.3510 C.3       12 UNK         0.0378 
      9 C9         30.6848   -4.8250   -3.7904 C.ar      12 UNK        -0.0802 
     10 C10        31.6651   -3.9458   -4.2598 C.ar      12 UNK        -0.0944 
     11 C11        31.6485   -3.4879   -5.5817 C.ar      12 UNK        -0.0787 
     12 C12        30.6132   -3.9090   -6.4296 C.ar      12 UNK        -0.0862 
     13 C13        29.6347   -4.7992   -5.9751 C.ar      12 UNK        -0.0733 
     14 C14        29.6802   -5.2593   -4.6575 C.ar      12 UNK        -0.0832 
     15 C15        28.5283   -5.2752   -6.9054 C.3       12 UNK         0.0240 
     16 S16        26.9204   -4.5438   -6.4697 S.3       12 UNK        -0.2522 
     17 C17        27.2344   -2.7893   -6.8479 C.3       12 UNK        -0.0967 
     18 CA         25.9248   -1.9671   -6.9421 C.3       5 UNK         0.0660 
     19 N          25.1931   -1.9767   -5.6723 N.am      5 UNK        -0.4015 
     20 C          23.8681   -1.8423   -5.5390 C.2       4 UNK         0.4946 
     21 O          23.1004   -1.6737   -6.4874 O.2       4 UNK        -0.5353 
     22 CA         23.3224   -1.8264   -4.1068 C.3       4 UNK         0.0277 
     23 CB         23.4355   -3.2131   -3.4508 C.3       4 UNK        -0.1981 
     24 N          24.0293   -0.8236   -3.3094 N.am      4 UNK        -0.4209 
     25 C          23.7344    0.4854   -3.3152 C.2       3 UNK         0.4942 
     26 O          22.7704    0.9658   -3.9115 O.2       3 UNK        -0.5208 
     27 CA         24.6647    1.4262   -2.5302 C.3       3 UNK         0.0250 
     28 CB         24.0865    1.7208   -1.1366 C.3       3 UNK        -0.1990 
     29 N          26.0247    0.8949   -2.4026 N.am      3 UNK        -0.4232 
     30 C          26.9373    0.9476   -3.3863 C.2       2 UNK         0.4993 
     31 O          26.7431    1.5120   -4.4615 O.2       2 UNK        -0.5286 
     32 CA         28.2922    0.2545   -3.1484 C.3       2 UNK         0.0209 
     33 CB         29.3337    1.2798   -2.6696 C.3       2 UNK        -0.1931 
     34 N          28.2436   -0.8560   -2.1932 N.am      2 UNK        -0.4546 
     35 C          27.5051   -1.9635   -2.3380 C.2       1 UNK         0.5154 
     36 O          26.7937   -2.1904   -3.3209 O.2       1 UNK        -0.5181 
     37 C          26.1819   -0.5201   -7.4142 C.2       5 UNK         0.5014 
     38 O          27.3126   -0.1847   -7.7671 O.2       5 UNK        -0.5248 
     39 N          25.1357    0.3181   -7.4234 N.am      6 UNK        -0.4434 
     40 CA         25.1928    1.7650   -7.6694 C.3       6 UNK         0.0363 
     41 CB         23.7881    2.3600   -7.4844 C.3       6 UNK        -0.1936 
     42 C          25.7812    2.1790   -9.0312 C.2       6 UNK         0.5081 
     43 O          26.3051    3.2868   -9.1469 O.2       6 UNK        -0.5248 
     44 N          25.7048    1.2873  -10.0287 N.am      7 UNK        -0.4718 
     45 CA         26.3198    1.4622  -11.3472 C.3       7 UNK         0.0273 
     46 CB         25.7255    0.4315  -12.3206 C.3       7 UNK        -0.1935 
     47 C          27.8571    1.3554  -11.3246 C.2       7 UNK         0.5018 
     48 O          28.5072    1.9511  -12.1845 O.2       7 UNK        -0.5186 
     49 N          28.4056    0.6017  -10.3616 N.am      8 UNK        -0.4240 
     50 CA         29.8448    0.4186  -10.1577 C.3       8 UNK         0.0235 
     51 CB         30.1314   -1.0702   -9.9083 C.3       8 UNK        -0.2000 
     52 C          30.3599    1.2638   -8.9826 C.2       8 UNK         0.4941 
     53 O          31.5076    1.7119   -9.0219 O.2       8 UNK        -0.5273 
     54 N          29.5102    1.4661   -7.9641 N.am      9 UNK        -0.4262 
     55 CA         29.7564    2.2019   -6.7244 C.3       9 UNK         0.0264 
     56 CB         29.8613    3.7185   -7.0027 C.3       9 UNK        -0.1955 
     57 C          30.9500    1.6014   -5.9627 C.2       9 UNK         0.5031 
     58 O          30.8554    0.4626   -5.5076 O.2       9 UNK        -0.5390 
     59 N          32.0491    2.3565   -5.8523 N.am      10 UNK        -0.4204 
     60 CA         33.2983    1.9267   -5.2218 C.3       10 UNK         0.0237 
     61 CB         34.1150    3.1758   -4.8473 C.3       10 UNK        -0.1985 
     62 C          34.1413    0.9638   -6.0833 C.2       10 UNK         0.4970 
     63 O          35.1391    0.4521   -5.5741 O.2       10 UNK        -0.4914 
     64 N          33.7617    0.7498   -7.3534 N.am      11 UNK        -0.4285 
     65 CA         34.4841   -0.0611   -8.3519 C.3       11 UNK         0.1007 
     66 C          35.8445    0.5517   -8.8108 C.2       11 UNK         0.5703 
     67 N          36.1059    1.8332   -8.5789 N.am      11 UNK        -0.7361 
     68 O          36.6672   -0.1299   -9.4185 O.2       11 UNK        -0.4986 
     69 C69        34.6001   -1.5670   -7.9663 C.3       12 UNK        -0.0947 
     70 S70        32.9872   -2.4072   -7.8404 S.3       12 UNK        -0.2240 
     71 C71        32.7635   -2.5402   -6.0337 C.3       12 UNK         0.0194 
     72 H72        23.7929   -2.5390    1.3142 H         1 UNK         0.0906 
     73 H73        23.1821   -2.0364   -0.2632 H         1 UNK         0.0906 
     74 H74        23.7101   -3.7027   -0.0105 H         1 UNK         0.0906 
     75 H75        25.7770   -4.1294   -0.8159 H         1 UNK         0.3140 
     76 H76        28.0003   -2.4618   -0.3048 H         1 UNK         0.1085 
     77 H77        27.9140   -5.0559   -0.7950 H         1 UNK         0.0836 
     78 H78        28.0321   -4.6065   -2.4727 H         1 UNK         0.0836 
     79 H79        30.1817   -6.2564   -2.2434 H         1 UNK         0.0731 
     80 H80        31.7569   -5.5281   -2.0704 H         1 UNK         0.0731 
     81 H81        32.4469   -3.6164   -3.5886 H         1 UNK         0.1312 
     82 H82        30.5625   -3.5542   -7.4488 H         1 UNK         0.1406 
     83 H83        28.9222   -5.9470   -4.3076 H         1 UNK         0.1631 
     84 H84        28.4494   -6.3616   -6.8450 H         1 UNK         0.0717 
     85 H85        28.7638   -5.0442   -7.9456 H         1 UNK         0.0717 
     86 H86        27.8967   -2.3763   -6.0834 H         1 UNK         0.0934 
     87 H87        27.7834   -2.7426   -7.7905 H         1 UNK         0.0934 
     88 H88        25.3005   -2.4324   -7.7080 H         1 UNK         0.0739 
     89 H89        25.7641   -2.0895   -4.8360 H         1 UNK         0.3093 
     90 H90        22.2623   -1.5668   -4.1543 H         1 UNK         0.0818 
     91 H91        22.9502   -3.9729   -4.0649 H         1 UNK         0.0819 
     92 H92        24.4715   -3.5231   -3.3121 H         1 UNK         0.0819 
     93 H93        22.9452   -3.2292   -2.4784 H         1 UNK         0.0819 
     94 H94        24.8763   -1.1251   -2.8461 H         1 UNK         0.3041 
     95 H95        24.7117    2.3709   -3.0767 H         1 UNK         0.0784 
     96 H96        23.1115    2.2035   -1.2168 H         1 UNK         0.0793 
     97 H97        23.9480    0.8119   -0.5512 H         1 UNK         0.0793 
     98 H98        24.7335    2.3910   -0.5704 H         1 UNK         0.0793 
     99 H99        26.2428    0.3984   -1.5455 H         1 UNK         0.3024 
    100 H100       28.6164   -0.1507   -4.1102 H         1 UNK         0.1171 
    101 H101       30.3307    0.8404   -2.6289 H         1 UNK         0.0786 
    102 H102       29.3867    2.1310   -3.3497 H         1 UNK         0.0786 
    103 H103       29.0937    1.6698   -1.6798 H         1 UNK         0.0786 
    104 H104       28.7898   -0.7454   -1.3509 H         1 UNK         0.2977 
    105 H105       24.2368   -0.0641   -7.1489 H         1 UNK         0.3127 
    106 H106       25.8449    2.1924   -6.9052 H         1 UNK         0.0770 
    107 H107       23.0757    1.9404   -8.1957 H         1 UNK         0.0814 
    108 H108       23.7987    3.4411   -7.6308 H         1 UNK         0.0814 
    109 H109       23.4093    2.1753   -6.4787 H         1 UNK         0.0814 
    110 H110       25.2419    0.4083   -9.8484 H         1 UNK         0.2983 
    111 H111       26.0681    2.4612  -11.7109 H         1 UNK         0.0947 
    112 H112       26.1435    0.5541  -13.3209 H         1 UNK         0.0806 
    113 H113       24.6446    0.5442  -12.4078 H         1 UNK         0.0806 
    114 H114       25.9336   -0.5915  -12.0042 H         1 UNK         0.0806 
    115 H115       27.7975    0.1954   -9.6585 H         1 UNK         0.3000 
    116 H116       30.3935    0.7231  -11.0516 H         1 UNK         0.0850 
    117 H117       31.2053   -1.2474   -9.8522 H         1 UNK         0.0810 
    118 H118       29.7444   -1.6915  -10.7159 H         1 UNK         0.0810 
    119 H119       29.6911   -1.4190   -8.9731 H         1 UNK         0.0810 
    120 H120       28.6341    0.9447   -7.9731 H         1 UNK         0.3040 
    121 H121       28.8802    2.0409   -6.0948 H         1 UNK         0.0766 
    122 H122       30.6852    3.9654   -7.6731 H         1 UNK         0.0812 
    123 H123       29.9971    4.2818   -6.0785 H         1 UNK         0.0812 
    124 H124       28.9455    4.0871   -7.4660 H         1 UNK         0.0812 
    125 H125       32.0443    3.2711   -6.2804 H         1 UNK         0.3205 
    126 H126       33.0511    1.3946   -4.3004 H         1 UNK         0.0754 
    127 H127       35.0364    2.9025   -4.3309 H         1 UNK         0.0769 
    128 H128       33.5555    3.8297   -4.1779 H         1 UNK         0.0769 
    129 H129       34.3952    3.7555   -5.7277 H         1 UNK         0.0769 
    130 H130       32.9294    1.2112   -7.7070 H         1 UNK         0.2981 
    131 H131       33.8643   -0.0136   -9.2479 H         1 UNK         0.0541 
    132 H132       36.9821    2.2217   -8.8901 H         1 UNK         0.3459 
    133 H133       35.4351    2.4139   -8.1031 H         1 UNK         0.3459 
    134 H134       35.1677   -1.6982   -7.0448 H         1 UNK         0.0612 
    135 H135       35.1566   -2.1113   -8.7308 H         1 UNK         0.0612 
    136 H136       33.7059   -2.8746   -5.5975 H         1 UNK         0.0624 
    137 H137       32.5668   -1.5485   -5.6284 H         1 UNK         0.0624 
@<TRIPOS>BOND
     1    1    2 1    
     2    1   72 1    
     3    1   73 1    
     4    1   74 1    
     5    2    3 2    
     6    2    4 am   BACKBONE|DICT|INTERRES
     7    4    5 1    
     8    4   75 1    
     9    5    6 1    
    10    5   35 1    
    11    5   76 1    
    12    6    7 1    
    13    6   77 1    
    14    6   78 1    
    15    7    8 1    
    16    8    9 1    
    17    8   79 1    
    18    8   80 1    
    19    9   10 ar   
    20    9   14 ar   
    21   10   11 ar   
    22   10   81 1    
    23   11   12 ar   
    24   11   71 1    
    25   12   13 ar   
    26   12   82 1    
    27   13   14 ar   
    28   13   15 1    
    29   14   83 1    
    30   15   16 1    
    31   15   84 1    
    32   15   85 1    
    33   16   17 1    
    34   17   18 1    
    35   17   86 1    
    36   17   87 1    
    37   18   19 1    
    38   18   37 1    
    39   18   88 1    
    40   19   20 am   BACKBONE|DICT|INTERRES
    41   19   89 1    
    42   20   21 2    
    43   20   22 1    
    44   22   23 1    
    45   22   24 1    
    46   22   90 1    
    47   23   91 1    
    48   23   92 1    
    49   23   93 1    
    50   24   25 am   BACKBONE|DICT|INTERRES
    51   24   94 1    
    52   25   26 2    
    53   25   27 1    
    54   27   28 1    
    55   27   29 1    
    56   27   95 1    
    57   28   96 1    
    58   28   97 1    
    59   28   98 1    
    60   29   30 am   BACKBONE|DICT|INTERRES
    61   29   99 1    
    62   30   31 2    
    63   30   32 1    
    64   32   33 1    
    65   32   34 1    
    66   32  100 1    
    67   33  101 1    
    68   33  102 1    
    69   33  103 1    
    70   34   35 am   BACKBONE|DICT|INTERRES
    71   34  104 1    
    72   35   36 2    
    73   37   38 2    
    74   37   39 am   BACKBONE|DICT|INTERRES
    75   39   40 1    
    76   39  105 1    
    77   40   41 1    
    78   40   42 1    
    79   40  106 1    
    80   41  107 1    
    81   41  108 1    
    82   41  109 1    
    83   42   43 2    
    84   42   44 am   BACKBONE|DICT|INTERRES
    85   44   45 1    
    86   44  110 1    
    87   45   46 1    
    88   45   47 1    
    89   45  111 1    
    90   46  112 1    
    91   46  113 1    
    92   46  114 1    
    93   47   48 2    
    94   47   49 am   BACKBONE|DICT|INTERRES
    95   49   50 1    
    96   49  115 1    
    97   50   51 1    
    98   50   52 1    
    99   50  116 1    
   100   51  117 1    
   101   51  118 1    
   102   51  119 1    
   103   52   53 2    
   104   52   54 am   BACKBONE|DICT|INTERRES
   105   54   55 1    
   106   54  120 1    
   107   55   56 1    
   108   55   57 1    
   109   55  121 1    
   110   56  122 1    
   111   56  123 1    
   112   56  124 1    
   113   57   58 2    
   114   57   59 am   BACKBONE|DICT|INTERRES
   115   59   60 1    
   116   59  125 1    
   117   60   61 1    
   118   60   62 1    
   119   60  126 1    
   120   61  127 1    
   121   61  128 1    
   122   61  129 1    
   123   62   63 2    
   124   62   64 am   BACKBONE|DICT|INTERRES
   125   64   65 1    
   126   64  130 1    
   127   65   66 1    
   128   65   69 1    
   129   65  131 1    
   130   66   67 am   BACKBONE|DICT|INTERRES
   131   66   68 2    
   132   67  132 1    
   133   67  133 1    
   134   69   70 1    
   135   69  134 1    
   136   69  135 1    
   137   70   71 1    
   138   71  136 1    
   139   71  137 1    
@<TRIPOS>SUBSTRUCTURE
     1 UNK         1 GROUP             0       ****    0 ROOT    
