@<TRIPOS>MOLECULE
3R137
137   139    1
SMALL
USER_CHARGES


@<TRIPOS>ATOM
      1 CA         23.2566   -3.8424   -6.7142 C.3       0 UNK        -0.2020 
      2 C          23.9199   -4.8323   -5.7694 C.2       0 UNK         0.4855 
      3 O          23.2325   -5.6147   -5.1134 O.2       0 UNK        -0.5197 
      4 N          25.2565   -4.7993   -5.6905 N.am      1 UNK        -0.4892 
      5 CA         26.0724   -5.6559   -4.8174 C.3       1 UNK         0.0835 
      6 C6         27.4781   -5.8947   -5.4302 C.3       12 UNK        -0.0855 
      7 S7         28.5365   -4.4035   -5.4946 S.3       12 UNK        -0.2931 
      8 C8         29.8163   -4.8695   -4.2847 C.3       12 UNK         0.0378 
      9 C9         30.5849   -3.6596   -3.7811 C.ar      12 UNK        -0.0802 
     10 C10        31.8902   -3.4067   -4.2162 C.ar      12 UNK        -0.0944 
     11 C11        32.5989   -2.3049   -3.7257 C.ar      12 UNK        -0.0787 
     12 C12        31.9945   -1.4601   -2.7911 C.ar      12 UNK        -0.0862 
     13 C13        30.6860   -1.6951   -2.3614 C.ar      12 UNK        -0.0733 
     14 C14        29.9897   -2.8024   -2.8518 C.ar      12 UNK        -0.0832 
     15 C15        30.0260   -0.7467   -1.3723 C.3       12 UNK         0.0240 
     16 S16        28.5924    0.1156   -2.0917 S.3       12 UNK        -0.2522 
     17 C17        29.3217    0.9916   -3.5243 C.3       12 UNK        -0.0967 
     18 CA         28.5125    0.7457   -4.8220 C.3       5 UNK         0.0660 
     19 N          27.1086    1.1335   -4.6354 N.am      5 UNK        -0.4015 
     20 C          26.1170    1.0799   -5.5313 C.2       4 UNK         0.4946 
     21 O          26.2923    0.8039   -6.7180 O.2       4 UNK        -0.5353 
     22 CA         24.6957    1.3799   -5.0141 C.3       4 UNK         0.0277 
     23 CB         23.6086    0.8994   -5.9936 C.3       4 UNK        -0.1981 
     24 N          24.4426    0.7766   -3.7024 N.am      4 UNK        -0.4209 
     25 C          24.8198    1.2649   -2.5159 C.2       3 UNK         0.4942 
     26 O          25.4560    2.3111   -2.3899 O.2       3 UNK        -0.5208 
     27 CA         24.4698    0.4346   -1.2673 C.3       3 UNK         0.0250 
     28 CB         22.9507    0.4332   -1.0028 C.3       3 UNK        -0.1990 
     29 N          25.0188   -0.9315   -1.2665 N.am      3 UNK        -0.4232 
     30 C          24.7439   -1.9427   -2.1025 C.2       2 UNK         0.4993 
     31 O          23.9620   -1.8647   -3.0565 O.2       2 UNK        -0.5286 
     32 CA         25.4439   -3.2771   -1.8189 C.3       2 UNK         0.0209 
     33 CB         24.6746   -4.0703   -0.7438 C.3       2 UNK        -0.1931 
     34 N          25.4859   -4.0114   -3.0780 N.am      2 UNK        -0.4546 
     35 C          26.1361   -5.1468   -3.3548 C.2       1 UNK         0.5154 
     36 O          26.7835   -5.7793   -2.5189 O.2       1 UNK        -0.5181 
     37 C          29.1825    1.4381   -6.0273 C.2       5 UNK         0.5014 
     38 O          29.9012    0.7885   -6.7920 O.2       5 UNK        -0.5248 
     39 N          28.8883    2.7343   -6.1971 N.am      6 UNK        -0.4434 
     40 CA         29.3869    3.5831   -7.2801 C.3       6 UNK         0.0363 
     41 CB         29.1998    5.0559   -6.8814 C.3       6 UNK        -0.1936 
     42 C          28.7402    3.3085   -8.6507 C.2       6 UNK         0.5081 
     43 O          29.2562    3.8043   -9.6521 O.2       6 UNK        -0.5248 
     44 N          27.6410    2.5448   -8.6890 N.am      7 UNK        -0.4718 
     45 CA         26.9579    2.1394   -9.9186 C.3       7 UNK         0.0273 
     46 CB         25.4557    2.4432   -9.7922 C.3       7 UNK        -0.1935 
     47 C          27.1843    0.6492  -10.2051 C.2       7 UNK         0.5018 
     48 O          27.4565    0.2905  -11.3508 O.2       7 UNK        -0.5186 
     49 N          27.0614   -0.1886   -9.1664 N.am      8 UNK        -0.4240 
     50 CA         27.1539   -1.6451   -9.2468 C.3       8 UNK         0.0235 
     51 CB         26.6064   -2.2612   -7.9490 C.3       8 UNK        -0.2000 
     52 C          28.5773   -2.1465   -9.5263 C.2       8 UNK         0.4941 
     53 O          28.7500   -3.0030  -10.3947 O.2       8 UNK        -0.5273 
     54 N          29.5588   -1.6155   -8.7855 N.am      9 UNK        -0.4262 
     55 CA         30.9624   -2.0335   -8.8567 C.3       9 UNK         0.0264 
     56 CB         31.3753   -2.5736   -7.4794 C.3       9 UNK        -0.1955 
     57 C          31.9055   -0.9038   -9.2999 C.2       9 UNK         0.5031 
     58 O          33.0834   -1.1766   -9.5355 O.2       9 UNK        -0.5390 
     59 N          31.3896    0.3318   -9.3933 N.am      10 UNK        -0.4204 
     60 CA         32.1203    1.5819   -9.6439 C.3       10 UNK         0.0237 
     61 CB         32.7721    1.5865  -11.0438 C.3       10 UNK        -0.1985 
     62 C          33.1061    1.9397   -8.5120 C.2       10 UNK         0.4970 
     63 O          34.1178    2.5958   -8.7663 O.2       10 UNK        -0.4914 
     64 N          32.7921    1.5076   -7.2849 N.am      11 UNK        -0.4285 
     65 CA         33.5931    1.7451   -6.0809 C.3       11 UNK         0.1007 
     66 C          33.2197    3.1093   -5.4497 C.2       11 UNK         0.5703 
     67 N          34.1854    3.9970   -5.2575 N.am      11 UNK        -0.7361 
     68 O          32.0673    3.3527   -5.0995 O.2       11 UNK        -0.4986 
     69 C69        33.4194    0.5936   -5.0611 C.3       12 UNK        -0.0947 
     70 S70        34.0644   -0.9920   -5.6889 S.3       12 UNK        -0.2240 
     71 C71        34.0212   -2.0280   -4.1926 C.3       12 UNK         0.0194 
     72 H72        22.2811   -4.2114   -7.0301 H         1 UNK         0.0906 
     73 H73        23.1128   -2.8837   -6.2162 H         1 UNK         0.0906 
     74 H74        23.8572   -3.6850   -7.6093 H         1 UNK         0.0906 
     75 H75        25.7786   -4.1283   -6.2357 H         1 UNK         0.3140 
     76 H76        25.5851   -6.6322   -4.7620 H         1 UNK         0.1085 
     77 H77        27.9903   -6.6899   -4.8854 H         1 UNK         0.0836 
     78 H78        27.3727   -6.2740   -6.4479 H         1 UNK         0.0836 
     79 H79        29.3562   -5.3692   -3.4310 H         1 UNK         0.0731 
     80 H80        30.4909   -5.5965   -4.7396 H         1 UNK         0.0731 
     81 H81        32.3554   -4.0651   -4.9370 H         1 UNK         0.1312 
     82 H82        32.5407   -0.6081   -2.4102 H         1 UNK         0.1406 
     83 H83        28.9775   -2.9912   -2.5204 H         1 UNK         0.1631 
     84 H84        30.7370   -0.0038   -1.0073 H         1 UNK         0.0717 
     85 H85        29.6972   -1.3120   -0.4993 H         1 UNK         0.0717 
     86 H86        30.3575    0.6824   -3.6599 H         1 UNK         0.0934 
     87 H87        29.3597    2.0566   -3.2865 H         1 UNK         0.0934 
     88 H88        28.5193   -0.3265   -5.0306 H         1 UNK         0.0739 
     89 H89        26.8568    1.4042   -3.6918 H         1 UNK         0.3093 
     90 H90        24.6112    2.4647   -4.9235 H         1 UNK         0.0818 
     91 H91        22.6094    1.1202   -5.6178 H         1 UNK         0.0819 
     92 H92        23.7034    1.3942   -6.9605 H         1 UNK         0.0819 
     93 H93        23.6721   -0.1754   -6.1683 H         1 UNK         0.0819 
     94 H94        24.0224   -0.1515   -3.6951 H         1 UNK         0.3041 
     95 H95        24.9416    0.9386   -0.4220 H         1 UNK         0.0784 
     96 H96        22.5671    1.4520   -0.9329 H         1 UNK         0.0793 
     97 H97        22.3936   -0.0680   -1.7948 H         1 UNK         0.0793 
     98 H98        22.7145   -0.0659   -0.0629 H         1 UNK         0.0793 
     99 H99        25.6970   -1.1046   -0.5369 H         1 UNK         0.3024 
    100 H100       26.4671   -3.0865   -1.4882 H         1 UNK         0.1171 
    101 H101       23.6614   -4.3082   -1.0705 H         1 UNK         0.0786 
    102 H102       24.5936   -3.5003    0.1826 H         1 UNK         0.0786 
    103 H103       25.1747   -5.0069   -0.4980 H         1 UNK         0.0786 
    104 H104       24.9631   -3.5612   -3.8199 H         1 UNK         0.2977 
    105 H105       28.2748    3.1748   -5.5273 H         1 UNK         0.3127 
    106 H106       30.4570    3.3974   -7.3884 H         1 UNK         0.0770 
    107 H107       28.1476    5.3075   -6.7433 H         1 UNK         0.0814 
    108 H108       29.5965    5.7226   -7.6485 H         1 UNK         0.0814 
    109 H109       29.7278    5.2841   -5.9551 H         1 UNK         0.0814 
    110 H110       27.2869    2.1469   -7.8255 H         1 UNK         0.2983 
    111 H111       27.3396    2.6995  -10.7753 H         1 UNK         0.0947 
    112 H112       24.9220    2.1553  -10.6990 H         1 UNK         0.0806 
    113 H113       25.2803    3.5078   -9.6371 H         1 UNK         0.0806 
    114 H114       25.0003    1.9050   -8.9609 H         1 UNK         0.0806 
    115 H115       26.7982    0.1950   -8.2580 H         1 UNK         0.3000 
    116 H116       26.5178   -1.9742  -10.0715 H         1 UNK         0.0850 
    117 H117       26.6232   -3.3503   -8.0031 H         1 UNK         0.0810 
    118 H118       25.5764   -1.9522   -7.7714 H         1 UNK         0.0810 
    119 H119       27.1952   -1.9648   -7.0796 H         1 UNK         0.0810 
    120 H120       29.3278   -0.9284   -8.0772 H         1 UNK         0.3040 
    121 H121       31.0896   -2.8393   -9.5824 H         1 UNK         0.0766 
    122 H122       32.4209   -2.8836   -7.4733 H         1 UNK         0.0812 
    123 H123       31.2498   -1.8232   -6.6974 H         1 UNK         0.0812 
    124 H124       30.7822   -3.4449   -7.2048 H         1 UNK         0.0812 
    125 H125       30.4158    0.4409   -9.1491 H         1 UNK         0.3205 
    126 H126       31.3749    2.3735   -9.6409 H         1 UNK         0.0754 
    127 H127       33.1663    2.5739  -11.2869 H         1 UNK         0.0769 
    128 H128       32.0494    1.3288  -11.8180 H         1 UNK         0.0769 
    129 H129       33.6020    0.8826  -11.1099 H         1 UNK         0.0769 
    130 H130       31.9056    1.0370   -7.1409 H         1 UNK         0.2981 
    131 H131       34.6477    1.7741   -6.3633 H         1 UNK         0.0541 
    132 H132       35.1343    3.8053   -5.5393 H         1 UNK         0.3459 
    133 H133       33.9572    4.8825   -4.8339 H         1 UNK         0.3459 
    134 H134       32.3654    0.4657   -4.8140 H         1 UNK         0.0612 
    135 H135       33.9385    0.8258   -4.1293 H         1 UNK         0.0612 
    136 H136       34.5284   -2.9700   -4.4059 H         1 UNK         0.0624 
    137 H137       34.5965   -1.5458   -3.4008 H         1 UNK         0.0624 
@<TRIPOS>BOND
     1    1    2 1    
     2    1   72 1    
     3    1   73 1    
     4    1   74 1    
     5    2    3 2    
     6    2    4 am   BACKBONE|DICT|INTERRES
     7    4    5 1    
     8    4   75 1    
     9    5    6 1    
    10    5   35 1    
    11    5   76 1    
    12    6    7 1    
    13    6   77 1    
    14    6   78 1    
    15    7    8 1    
    16    8    9 1    
    17    8   79 1    
    18    8   80 1    
    19    9   10 ar   
    20    9   14 ar   
    21   10   11 ar   
    22   10   81 1    
    23   11   12 ar   
    24   11   71 1    
    25   12   13 ar   
    26   12   82 1    
    27   13   14 ar   
    28   13   15 1    
    29   14   83 1    
    30   15   16 1    
    31   15   84 1    
    32   15   85 1    
    33   16   17 1    
    34   17   18 1    
    35   17   86 1    
    36   17   87 1    
    37   18   19 1    
    38   18   37 1    
    39   18   88 1    
    40   19   20 am   BACKBONE|DICT|INTERRES
    41   19   89 1    
    42   20   21 2    
    43   20   22 1    
    44   22   23 1    
    45   22   24 1    
    46   22   90 1    
    47   23   91 1    
    48   23   92 1    
    49   23   93 1    
    50   24   25 am   BACKBONE|DICT|INTERRES
    51   24   94 1    
    52   25   26 2    
    53   25   27 1    
    54   27   28 1    
    55   27   29 1    
    56   27   95 1    
    57   28   96 1    
    58   28   97 1    
    59   28   98 1    
    60   29   30 am   BACKBONE|DICT|INTERRES
    61   29   99 1    
    62   30   31 2    
    63   30   32 1    
    64   32   33 1    
    65   32   34 1    
    66   32  100 1    
    67   33  101 1    
    68   33  102 1    
    69   33  103 1    
    70   34   35 am   BACKBONE|DICT|INTERRES
    71   34  104 1    
    72   35   36 2    
    73   37   38 2    
    74   37   39 am   BACKBONE|DICT|INTERRES
    75   39   40 1    
    76   39  105 1    
    77   40   41 1    
    78   40   42 1    
    79   40  106 1    
    80   41  107 1    
    81   41  108 1    
    82   41  109 1    
    83   42   43 2    
    84   42   44 am   BACKBONE|DICT|INTERRES
    85   44   45 1    
    86   44  110 1    
    87   45   46 1    
    88   45   47 1    
    89   45  111 1    
    90   46  112 1    
    91   46  113 1    
    92   46  114 1    
    93   47   48 2    
    94   47   49 am   BACKBONE|DICT|INTERRES
    95   49   50 1    
    96   49  115 1    
    97   50   51 1    
    98   50   52 1    
    99   50  116 1    
   100   51  117 1    
   101   51  118 1    
   102   51  119 1    
   103   52   53 2    
   104   52   54 am   BACKBONE|DICT|INTERRES
   105   54   55 1    
   106   54  120 1    
   107   55   56 1    
   108   55   57 1    
   109   55  121 1    
   110   56  122 1    
   111   56  123 1    
   112   56  124 1    
   113   57   58 2    
   114   57   59 am   BACKBONE|DICT|INTERRES
   115   59   60 1    
   116   59  125 1    
   117   60   61 1    
   118   60   62 1    
   119   60  126 1    
   120   61  127 1    
   121   61  128 1    
   122   61  129 1    
   123   62   63 2    
   124   62   64 am   BACKBONE|DICT|INTERRES
   125   64   65 1    
   126   64  130 1    
   127   65   66 1    
   128   65   69 1    
   129   65  131 1    
   130   66   67 am   BACKBONE|DICT|INTERRES
   131   66   68 2    
   132   67  132 1    
   133   67  133 1    
   134   69   70 1    
   135   69  134 1    
   136   69  135 1    
   137   70   71 1    
   138   71  136 1    
   139   71  137 1    
@<TRIPOS>SUBSTRUCTURE
     1 UNK         1 GROUP             0       ****    0 ROOT    
