@<TRIPOS>MOLECULE
3R137
137   139    1
SMALL
USER_CHARGES


@<TRIPOS>ATOM
      1 CA         25.8290   -5.0441   -2.5455 C.3       0 UNK        -0.2020 
      2 C          26.6595   -4.4246   -1.4355 C.2       0 UNK         0.4855 
      3 O          26.1214   -4.1216   -0.3707 O.2       0 UNK        -0.5197 
      4 N          27.9653   -4.2372   -1.6698 N.am      1 UNK        -0.4892 
      5 CA         28.9154   -3.7275   -0.6695 C.3       1 UNK         0.0835 
      6 C6         30.3689   -4.2202   -0.9001 C.3       12 UNK        -0.0855 
      7 S7         30.4735   -6.0101   -1.2762 S.3       12 UNK        -0.2931 
      8 C8         31.3138   -6.0460   -2.8962 C.3       12 UNK         0.0378 
      9 C9         30.6078   -5.1996   -3.9477 C.ar      12 UNK        -0.0802 
     10 C10        31.1096   -3.9373   -4.2695 C.ar      12 UNK        -0.0944 
     11 C11        30.4619   -3.1324   -5.2052 C.ar      12 UNK        -0.0787 
     12 C12        29.3182   -3.6093   -5.8504 C.ar      12 UNK        -0.0862 
     13 C13        28.8121   -4.8855   -5.5601 C.ar      12 UNK        -0.0733 
     14 C14        29.4659   -5.6714   -4.6025 C.ar      12 UNK        -0.0832 
     15 C15        27.5912   -5.4746   -6.2732 C.3       12 UNK         0.0240 
     16 S16        26.4981   -4.2814   -7.1198 S.3       12 UNK        -0.2522 
     17 C17        25.8268   -3.3236   -5.7161 C.3       12 UNK        -0.0967 
     18 CA         24.9831   -2.0951   -6.1400 C.3       5 UNK         0.0660 
     19 N          24.4860   -1.3558   -4.9803 N.am      5 UNK        -0.4015 
     20 C          23.2419   -0.8713   -4.8550 C.2       4 UNK         0.4946 
     21 O          22.3151   -1.1409   -5.6202 O.2       4 UNK        -0.5353 
     22 CA         22.9896    0.1081   -3.6904 C.3       4 UNK         0.0277 
     23 CB         22.5485   -0.6551   -2.4308 C.3       4 UNK        -0.1981 
     24 N          24.1639    0.9264   -3.3751 N.am      4 UNK        -0.4209 
     25 C          24.7409    1.7968   -4.2169 C.2       3 UNK         0.4942 
     26 O          24.2220    2.1593   -5.2724 O.2       3 UNK        -0.5208 
     27 CA         26.1436    2.3294   -3.8540 C.3       3 UNK         0.0250 
     28 CB         26.0885    3.8368   -3.5571 C.3       3 UNK        -0.1990 
     29 N          26.8211    1.6523   -2.7411 N.am      3 UNK        -0.4232 
     30 C          27.1212    0.3493   -2.6446 C.2       2 UNK         0.4993 
     31 O          26.8179   -0.4956   -3.4974 O.2       2 UNK        -0.5286 
     32 CA         27.8159   -0.0728   -1.3419 C.3       2 UNK         0.0209 
     33 CB         26.9366    0.2658   -0.1156 C.3       2 UNK        -0.1931 
     34 N          28.0887   -1.5066   -1.3780 N.am      2 UNK        -0.4546 
     35 C          28.8597   -2.1897   -0.5207 C.2       1 UNK         0.5154 
     36 O          29.5085   -1.6535    0.3796 O.2       1 UNK        -0.5181 
     37 C          25.7604   -1.1228   -7.0461 C.2       5 UNK         0.5014 
     38 O          25.4758   -1.0568   -8.2431 O.2       5 UNK        -0.5248 
     39 N          26.7356   -0.4021   -6.4686 N.am      6 UNK        -0.4434 
     40 CA         27.6532    0.5635   -7.0942 C.3       6 UNK         0.0363 
     41 CB         26.9002    1.7456   -7.7355 C.3       6 UNK        -0.1936 
     42 C          28.6573   -0.0274   -8.0999 C.2       6 UNK         0.5081 
     43 O          29.7886    0.4549   -8.1350 O.2       6 UNK        -0.5248 
     44 N          28.2354   -1.0192   -8.8981 N.am      7 UNK        -0.4718 
     45 CA         28.9799   -1.7379   -9.9428 C.3       7 UNK         0.0273 
     46 CB         29.9562   -2.7552   -9.3202 C.3       7 UNK        -0.1935 
     47 C          29.6610   -0.7962  -10.9532 C.2       7 UNK         0.5018 
     48 O          30.8842   -0.8209  -11.0959 O.2       7 UNK        -0.5186 
     49 N          28.8410    0.0384  -11.6105 N.am      8 UNK        -0.4240 
     50 CA         29.2308    1.0719  -12.5811 C.3       8 UNK         0.0235 
     51 CB         29.8263    0.4394  -13.8584 C.3       8 UNK        -0.2000 
     52 C          30.1380    2.1526  -11.9588 C.2       8 UNK         0.4941 
     53 O          31.1485    2.5340  -12.5524 O.2       8 UNK        -0.5273 
     54 N          29.7392    2.6208  -10.7664 N.am      9 UNK        -0.4262 
     55 CA         30.3941    3.6469   -9.9458 C.3       9 UNK         0.0264 
     56 CB         30.3963    5.0157  -10.6610 C.3       9 UNK        -0.1955 
     57 C          31.7869    3.2351   -9.4254 C.2       9 UNK         0.5031 
     58 O          32.6557    4.0934   -9.2587 O.2       9 UNK        -0.5390 
     59 N          31.9643    1.9403   -9.1310 N.am      10 UNK        -0.4204 
     60 CA         33.1245    1.4059   -8.4158 C.3       10 UNK         0.0237 
     61 CB         33.2516   -0.1006   -8.6891 C.3       10 UNK        -0.1985 
     62 C          33.0262    1.6754   -6.9047 C.2       10 UNK         0.4970 
     63 O          34.0525    1.9370   -6.2761 O.2       10 UNK        -0.4914 
     64 N          31.8031    1.6286   -6.3599 N.am      11 UNK        -0.4285 
     65 CA         31.4922    1.9299   -4.9535 C.3       11 UNK         0.1007 
     66 C          30.2233    2.8098   -4.7600 C.2       11 UNK         0.5703 
     67 N          29.6497    3.3822   -5.8126 N.am      11 UNK        -0.7361 
     68 O          29.7656    3.0013   -3.6363 O.2       11 UNK        -0.4986 
     69 C69        31.5224    0.6580   -4.0646 C.3       12 UNK        -0.0947 
     70 S70        30.1821   -0.5310   -4.4092 S.3       12 UNK        -0.2240 
     71 C71        30.9960   -1.7402   -5.4903 C.3       12 UNK         0.0194 
     72 H72        26.4255   -5.2352   -3.4351 H         1 UNK         0.0906 
     73 H73        25.0065   -4.3806   -2.8104 H         1 UNK         0.0906 
     74 H74        25.4069   -5.9917   -2.2120 H         1 UNK         0.0906 
     75 H75        28.3747   -4.5138   -2.5521 H         1 UNK         0.3140 
     76 H76        28.6080   -4.1252    0.3007 H         1 UNK         0.1085 
     77 H77        30.8539   -3.6366   -1.6799 H         1 UNK         0.0836 
     78 H78        30.9630   -4.0397   -0.0022 H         1 UNK         0.0836 
     79 H79        31.3723   -7.0796   -3.2405 H         1 UNK         0.0731 
     80 H80        32.3449   -5.7131   -2.7666 H         1 UNK         0.0731 
     81 H81        31.9951   -3.5664   -3.7714 H         1 UNK         0.1312 
     82 H82        28.8294   -2.9737   -6.5740 H         1 UNK         0.1406 
     83 H83        29.0893   -6.6580   -4.3663 H         1 UNK         0.1631 
     84 H84        26.9897   -6.0529   -5.5711 H         1 UNK         0.0717 
     85 H85        27.9501   -6.1843   -7.0195 H         1 UNK         0.0717 
     86 H86        25.1960   -3.9979   -5.1380 H         1 UNK         0.0934 
     87 H87        26.6427   -3.0223   -5.0567 H         1 UNK         0.0934 
     88 H88        24.1394   -2.4701   -6.7238 H         1 UNK         0.0739 
     89 H89        25.1893   -1.0556   -4.3107 H         1 UNK         0.3093 
     90 H90        22.1825    0.7800   -3.9900 H         1 UNK         0.0818 
     91 H91        21.6615   -1.2577   -2.6318 H         1 UNK         0.0819 
     92 H92        23.3264   -1.3306   -2.0718 H         1 UNK         0.0819 
     93 H93        22.2959    0.0286   -1.6201 H         1 UNK         0.0819 
     94 H94        24.6523    0.7084   -2.5195 H         1 UNK         0.3041 
     95 H95        26.7725    2.1846   -4.7324 H         1 UNK         0.0784 
     96 H96        25.6372    4.3845   -4.3858 H         1 UNK         0.0793 
     97 H97        25.4985    4.0505   -2.6650 H         1 UNK         0.0793 
     98 H98        27.0871    4.2485   -3.4080 H         1 UNK         0.0793 
     99 H99        27.1216    2.2581   -1.9909 H         1 UNK         0.3024 
    100 H100       28.7671    0.4613   -1.2809 H         1 UNK         0.1171 
    101 H101       26.7226    1.3329   -0.0500 H         1 UNK         0.0786 
    102 H102       25.9812   -0.2594   -0.1517 H         1 UNK         0.0786 
    103 H103       27.4261   -0.0066    0.8192 H         1 UNK         0.0786 
    104 H104       27.6321   -2.0006   -2.1343 H         1 UNK         0.2977 
    105 H105       26.9045   -0.5517   -5.4772 H         1 UNK         0.3127 
    106 H106       28.2462    0.9601   -6.2703 H         1 UNK         0.0770 
    107 H107       26.3198    1.4377   -8.6055 H         1 UNK         0.0814 
    108 H108       27.5971    2.5154   -8.0680 H         1 UNK         0.0814 
    109 H109       26.2154    2.2174   -7.0337 H         1 UNK         0.0814 
    110 H110       27.2531   -1.2690   -8.8055 H         1 UNK         0.2983 
    111 H111       28.2436   -2.3084  -10.5113 H         1 UNK         0.0947 
    112 H112       30.6875   -2.2741   -8.6737 H         1 UNK         0.0806 
    113 H113       30.5105   -3.2889  -10.0933 H         1 UNK         0.0806 
    114 H114       29.4248   -3.5074   -8.7393 H         1 UNK         0.0806 
    115 H115       27.8527   -0.0196  -11.4050 H         1 UNK         0.3000 
    116 H116       28.3115    1.5828  -12.8719 H         1 UNK         0.0850 
    117 H117       29.9988    1.1969  -14.6240 H         1 UNK         0.0810 
    118 H118       29.1526   -0.3035  -14.2851 H         1 UNK         0.0810 
    119 H119       30.7828   -0.0468  -13.6642 H         1 UNK         0.0810 
    120 H120       28.9057    2.2136  -10.3677 H         1 UNK         0.3040 
    121 H121       29.7709    3.7536   -9.0571 H         1 UNK         0.0766 
    122 H122       31.0577    5.0195  -11.5279 H         1 UNK         0.0812 
    123 H123       30.7371    5.8066   -9.9916 H         1 UNK         0.0812 
    124 H124       29.3971    5.2895  -10.9994 H         1 UNK         0.0812 
    125 H125       31.1793    1.3043   -9.2406 H         1 UNK         0.3205 
    126 H126       34.0258    1.8967   -8.7894 H         1 UNK         0.0754 
    127 H127       34.1223   -0.5189   -8.1826 H         1 UNK         0.0769 
    128 H128       33.3664   -0.3007   -9.7546 H         1 UNK         0.0769 
    129 H129       32.3756   -0.6476   -8.3413 H         1 UNK         0.0769 
    130 H130       31.0218    1.3287   -6.9362 H         1 UNK         0.2981 
    131 H131       32.2852    2.5790   -4.5783 H         1 UNK         0.0541 
    132 H132       30.0549    3.2944   -6.7273 H         1 UNK         0.3459 
    133 H133       28.8473    3.9726   -5.6667 H         1 UNK         0.3459 
    134 H134       31.4452    0.9396   -3.0132 H         1 UNK         0.0612 
    135 H135       32.4898    0.1631   -4.1550 H         1 UNK         0.0612 
    136 H136       32.0769   -1.7217   -5.3466 H         1 UNK         0.0624 
    137 H137       30.8207   -1.4650   -6.5285 H         1 UNK         0.0624 
@<TRIPOS>BOND
     1    1    2 1    
     2    1   72 1    
     3    1   73 1    
     4    1   74 1    
     5    2    3 2    
     6    2    4 am   BACKBONE|DICT|INTERRES
     7    4    5 1    
     8    4   75 1    
     9    5    6 1    
    10    5   35 1    
    11    5   76 1    
    12    6    7 1    
    13    6   77 1    
    14    6   78 1    
    15    7    8 1    
    16    8    9 1    
    17    8   79 1    
    18    8   80 1    
    19    9   10 ar   
    20    9   14 ar   
    21   10   11 ar   
    22   10   81 1    
    23   11   12 ar   
    24   11   71 1    
    25   12   13 ar   
    26   12   82 1    
    27   13   14 ar   
    28   13   15 1    
    29   14   83 1    
    30   15   16 1    
    31   15   84 1    
    32   15   85 1    
    33   16   17 1    
    34   17   18 1    
    35   17   86 1    
    36   17   87 1    
    37   18   19 1    
    38   18   37 1    
    39   18   88 1    
    40   19   20 am   BACKBONE|DICT|INTERRES
    41   19   89 1    
    42   20   21 2    
    43   20   22 1    
    44   22   23 1    
    45   22   24 1    
    46   22   90 1    
    47   23   91 1    
    48   23   92 1    
    49   23   93 1    
    50   24   25 am   BACKBONE|DICT|INTERRES
    51   24   94 1    
    52   25   26 2    
    53   25   27 1    
    54   27   28 1    
    55   27   29 1    
    56   27   95 1    
    57   28   96 1    
    58   28   97 1    
    59   28   98 1    
    60   29   30 am   BACKBONE|DICT|INTERRES
    61   29   99 1    
    62   30   31 2    
    63   30   32 1    
    64   32   33 1    
    65   32   34 1    
    66   32  100 1    
    67   33  101 1    
    68   33  102 1    
    69   33  103 1    
    70   34   35 am   BACKBONE|DICT|INTERRES
    71   34  104 1    
    72   35   36 2    
    73   37   38 2    
    74   37   39 am   BACKBONE|DICT|INTERRES
    75   39   40 1    
    76   39  105 1    
    77   40   41 1    
    78   40   42 1    
    79   40  106 1    
    80   41  107 1    
    81   41  108 1    
    82   41  109 1    
    83   42   43 2    
    84   42   44 am   BACKBONE|DICT|INTERRES
    85   44   45 1    
    86   44  110 1    
    87   45   46 1    
    88   45   47 1    
    89   45  111 1    
    90   46  112 1    
    91   46  113 1    
    92   46  114 1    
    93   47   48 2    
    94   47   49 am   BACKBONE|DICT|INTERRES
    95   49   50 1    
    96   49  115 1    
    97   50   51 1    
    98   50   52 1    
    99   50  116 1    
   100   51  117 1    
   101   51  118 1    
   102   51  119 1    
   103   52   53 2    
   104   52   54 am   BACKBONE|DICT|INTERRES
   105   54   55 1    
   106   54  120 1    
   107   55   56 1    
   108   55   57 1    
   109   55  121 1    
   110   56  122 1    
   111   56  123 1    
   112   56  124 1    
   113   57   58 2    
   114   57   59 am   BACKBONE|DICT|INTERRES
   115   59   60 1    
   116   59  125 1    
   117   60   61 1    
   118   60   62 1    
   119   60  126 1    
   120   61  127 1    
   121   61  128 1    
   122   61  129 1    
   123   62   63 2    
   124   62   64 am   BACKBONE|DICT|INTERRES
   125   64   65 1    
   126   64  130 1    
   127   65   66 1    
   128   65   69 1    
   129   65  131 1    
   130   66   67 am   BACKBONE|DICT|INTERRES
   131   66   68 2    
   132   67  132 1    
   133   67  133 1    
   134   69   70 1    
   135   69  134 1    
   136   69  135 1    
   137   70   71 1    
   138   71  136 1    
   139   71  137 1    
@<TRIPOS>SUBSTRUCTURE
     1 UNK         1 GROUP             0       ****    0 ROOT    
