@<TRIPOS>MOLECULE
3R137
137   139    1
SMALL
USER_CHARGES


@<TRIPOS>ATOM
      1 CA         23.5788   -5.5609   -3.8251 C.3       0 UNK        -0.2020 
      2 C          24.5271   -4.8498   -2.8730 C.2       0 UNK         0.4855 
      3 O          24.0774   -4.1511   -1.9649 O.2       0 UNK        -0.5197 
      4 N          25.8364   -5.0253   -3.0928 N.am      1 UNK        -0.4892 
      5 CA         26.9646   -4.4863   -2.3190 C.3       1 UNK         0.0835 
      6 C6         28.3004   -4.9914   -2.9321 C.3       12 UNK        -0.0855 
      7 S7         29.6384   -5.3224   -1.7354 S.3       12 UNK        -0.2931 
      8 C8         30.1757   -3.6687   -1.1693 C.3       12 UNK         0.0378 
      9 C9         30.6430   -2.6744   -2.2361 C.ar      12 UNK        -0.0802 
     10 C10        30.9527   -3.0351   -3.5547 C.ar      12 UNK        -0.0944 
     11 C11        31.3174   -2.0653   -4.4946 C.ar      12 UNK        -0.0787 
     12 C12        31.4313   -0.7297   -4.0988 C.ar      12 UNK        -0.0862 
     13 C13        31.1549   -0.3582   -2.7804 C.ar      12 UNK        -0.0733 
     14 C14        30.7599   -1.3334   -1.8612 C.ar      12 UNK        -0.0832 
     15 C15        31.2493    1.0972   -2.3389 C.3       12 UNK         0.0240 
     16 S16        30.1563    2.2215   -3.2727 S.3       12 UNK        -0.2522 
     17 C17        28.5696    1.3188   -3.3682 C.3       12 UNK        -0.0967 
     18 CA         28.1341    1.1409   -4.8466 C.3       5 UNK         0.0660 
     19 N          27.4512   -0.1318   -5.0953 N.am      5 UNK        -0.4015 
     20 C          27.0899   -0.5785   -6.3078 C.2       4 UNK         0.4946 
     21 O          27.4049   -0.0254   -7.3606 O.2       4 UNK        -0.5353 
     22 CA         26.1705   -1.8097   -6.3562 C.3       4 UNK         0.0277 
     23 CB         26.9836   -3.1144   -6.3644 C.3       4 UNK        -0.1981 
     24 N          25.2144   -1.8037   -5.2446 N.am      4 UNK        -0.4209 
     25 C          24.1601   -0.9753   -5.1744 C.2       3 UNK         0.4942 
     26 O          23.8360   -0.2156   -6.0855 O.2       3 UNK        -0.5208 
     27 CA         23.3560   -0.9463   -3.8616 C.3       3 UNK         0.0250 
     28 CB         22.1569   -1.9034   -3.9312 C.3       3 UNK        -0.1990 
     29 N          24.1746   -1.2498   -2.6846 N.am      3 UNK        -0.4232 
     30 C          25.1100   -0.4213   -2.1952 C.2       2 UNK         0.4993 
     31 O          25.3294    0.7012   -2.6523 O.2       2 UNK        -0.5286 
     32 CA         26.0007   -0.9609   -1.0584 C.3       2 UNK         0.0209 
     33 CB         25.3574   -0.6858    0.3093 C.3       2 UNK        -0.1931 
     34 N          26.2983   -2.3940   -1.1840 N.am      2 UNK        -0.4546 
     35 C          26.9073   -2.9429   -2.2443 C.2       1 UNK         0.5154 
     36 O          27.3340   -2.2695   -3.1826 O.2       1 UNK        -0.5181 
     37 C          27.2916    2.3394   -5.3293 C.2       5 UNK         0.5014 
     38 O          27.8091    3.1922   -6.0507 O.2       5 UNK        -0.5248 
     39 N          25.9974    2.3544   -4.9722 N.am      6 UNK        -0.4434 
     40 CA         25.0182    3.3503   -5.4245 C.3       6 UNK         0.0363 
     41 CB         23.6842    3.1323   -4.6942 C.3       6 UNK        -0.1936 
     42 C          24.8095    3.3566   -6.9517 C.2       6 UNK         0.5081 
     43 O          24.6238    4.4264   -7.5315 O.2       6 UNK        -0.5248 
     44 N          24.8844    2.1752   -7.5801 N.am      7 UNK        -0.4718 
     45 CA         24.8644    1.9887   -9.0352 C.3       7 UNK         0.0273 
     46 CB         24.4441    0.5425   -9.3465 C.3       7 UNK        -0.1935 
     47 C          26.2030    2.3246   -9.7274 C.2       7 UNK         0.5018 
     48 O          26.2557    2.2854  -10.9575 O.2       7 UNK        -0.5186 
     49 N          27.2458    2.6435   -8.9456 N.am      8 UNK        -0.4240 
     50 CA         28.6104    2.9853   -9.3556 C.3       8 UNK         0.0235 
     51 CB         28.6334    4.2936  -10.1762 C.3       8 UNK        -0.2000 
     52 C          29.3515    1.8205  -10.0389 C.2       8 UNK         0.4941 
     53 O          30.0129    2.0295  -11.0590 O.2       8 UNK        -0.5273 
     54 N          29.2478    0.6147   -9.4595 N.am      9 UNK        -0.4262 
     55 CA         30.0244   -0.5643   -9.8563 C.3       9 UNK         0.0264 
     56 CB         29.5184   -1.7936   -9.0869 C.3       9 UNK        -0.1955 
     57 C          31.5343   -0.3588   -9.6285 C.2       9 UNK         0.5031 
     58 O          31.9322    0.2434   -8.6268 O.2       9 UNK        -0.5390 
     59 N          32.3475   -0.8647  -10.5631 N.am      10 UNK        -0.4204 
     60 CA         33.7915   -0.6304  -10.6569 C.3       10 UNK         0.0237 
     61 CB         34.2305   -0.8535  -12.1175 C.3       10 UNK        -0.1985 
     62 C          34.6306   -1.4507   -9.6547 C.2       10 UNK         0.4970 
     63 O          35.5347   -2.1803  -10.0671 O.2       10 UNK        -0.4914 
     64 N          34.3407   -1.3009   -8.3575 N.am      11 UNK        -0.4285 
     65 CA         35.1627   -1.8377   -7.2571 C.3       11 UNK         0.1007 
     66 C          36.4363   -0.9948   -6.9514 C.2       11 UNK         0.5703 
     67 N          36.5923    0.2069   -7.4959 N.am      11 UNK        -0.7361 
     68 O          37.3089   -1.4475   -6.2139 O.2       11 UNK        -0.4986 
     69 C69        34.3341   -2.0766   -5.9692 C.3       12 UNK        -0.0947 
     70 S70        33.0821   -3.3825   -6.1896 S.3       12 UNK        -0.2240 
     71 C71        31.5385   -2.4565   -5.9485 C.3       12 UNK         0.0194 
     72 H72        23.8950   -6.5901   -3.9943 H         1 UNK         0.0906 
     73 H73        22.5691   -5.5840   -3.4154 H         1 UNK         0.0906 
     74 H74        23.5464   -5.0471   -4.7856 H         1 UNK         0.0906 
     75 H75        26.1054   -5.6070   -3.8736 H         1 UNK         0.3140 
     76 H76        26.8721   -4.8833   -1.3060 H         1 UNK         0.1085 
     77 H77        28.1365   -5.9562   -3.4151 H         1 UNK         0.0836 
     78 H78        28.6502   -4.3516   -3.7405 H         1 UNK         0.0836 
     79 H79        30.9938   -3.8106   -0.4619 H         1 UNK         0.0731 
     80 H80        29.3589   -3.2267   -0.5972 H         1 UNK         0.0731 
     81 H81        30.8926   -4.0667   -3.8696 H         1 UNK         0.1312 
     82 H82        31.7106    0.0268   -4.8196 H         1 UNK         0.1406 
     83 H83        30.5299   -1.0450   -0.8442 H         1 UNK         0.1631 
     84 H84        32.2800    1.4359   -2.4511 H         1 UNK         0.0717 
     85 H85        31.0111    1.1952   -1.2786 H         1 UNK         0.0717 
     86 H86        28.6644    0.3484   -2.8825 H         1 UNK         0.0934 
     87 H87        27.8225    1.8525   -2.7772 H         1 UNK         0.0934 
     88 H88        29.0292    1.1060   -5.4725 H         1 UNK         0.0739 
     89 H89        27.2404   -0.7121   -4.2882 H         1 UNK         0.3093 
     90 H90        25.6030   -1.7695   -7.2878 H         1 UNK         0.0818 
     91 H91        27.6977   -3.1599   -5.5440 H         1 UNK         0.0819 
     92 H92        26.3374   -3.9897   -6.3016 H         1 UNK         0.0819 
     93 H93        27.5565   -3.2029   -7.2874 H         1 UNK         0.0819 
     94 H94        25.4680   -2.3434   -4.4290 H         1 UNK         0.3041 
     95 H95        22.9640    0.0657   -3.7416 H         1 UNK         0.0784 
     96 H96        21.5010   -1.6429   -4.7631 H         1 UNK         0.0793 
     97 H97        22.4682   -2.9363   -4.0763 H         1 UNK         0.0793 
     98 H98        21.5588   -1.8578   -3.0210 H         1 UNK         0.0793 
     99 H99        24.0718   -2.1730   -2.2712 H         1 UNK         0.3024 
    100 H100       26.9487   -0.4208   -1.1069 H         1 UNK         0.1171 
    101 H101       25.1428    0.3769    0.4324 H         1 UNK         0.0786 
    102 H102       26.0192   -0.9773    1.1250 H         1 UNK         0.0786 
    103 H103       24.4168   -1.2249    0.4296 H         1 UNK         0.0786 
    104 H104       25.9003   -3.0048   -0.4840 H         1 UNK         0.2977 
    105 H105       25.6681    1.6505   -4.3155 H         1 UNK         0.3127 
    106 H106       25.4025    4.3329   -5.1427 H         1 UNK         0.0770 
    107 H107       23.2298    2.1782   -4.9602 H         1 UNK         0.0814 
    108 H108       22.9688    3.9145   -4.9514 H         1 UNK         0.0814 
    109 H109       23.8135    3.1531   -3.6118 H         1 UNK         0.0814 
    110 H110       24.9634    1.3342   -7.0189 H         1 UNK         0.2983 
    111 H111       24.1108    2.6580   -9.4557 H         1 UNK         0.0947 
    112 H112       24.3191    0.3936  -10.4197 H         1 UNK         0.0806 
    113 H113       23.4952    0.2913   -8.8722 H         1 UNK         0.0806 
    114 H114       25.1914   -0.1734   -9.0054 H         1 UNK         0.0806 
    115 H115       27.1009    2.6232   -7.9422 H         1 UNK         0.3000 
    116 H116       29.1582    3.1768   -8.4318 H         1 UNK         0.0850 
    117 H117       29.6577    4.6197  -10.3605 H         1 UNK         0.0810 
    118 H118       28.1274    5.1014   -9.6475 H         1 UNK         0.0810 
    119 H119       28.1525    4.1736  -11.1473 H         1 UNK         0.0810 
    120 H120       28.6464    0.5079   -8.6441 H         1 UNK         0.3040 
    121 H121       29.8506   -0.7293  -10.9217 H         1 UNK         0.0766 
    122 H122       28.4761   -2.0041   -9.3268 H         1 UNK         0.0812 
    123 H123       29.5871   -1.6453   -8.0097 H         1 UNK         0.0812 
    124 H124       30.0969   -2.6845   -9.3351 H         1 UNK         0.0812 
    125 H125       31.9364   -1.3898  -11.3218 H         1 UNK         0.3205 
    126 H126       33.9760    0.4206  -10.4235 H         1 UNK         0.0754 
    127 H127       35.2901   -0.6289  -12.2481 H         1 UNK         0.0769 
    128 H128       33.6812   -0.2053  -12.8009 H         1 UNK         0.0769 
    129 H129       34.0738   -1.8856  -12.4338 H         1 UNK         0.0769 
    130 H130       33.5626   -0.6971   -8.1088 H         1 UNK         0.2981 
    131 H131       35.5406   -2.8122   -7.5725 H         1 UNK         0.0541 
    132 H132       35.8837    0.5950   -8.0965 H         1 UNK         0.3459 
    133 H133       37.4260    0.7352   -7.2915 H         1 UNK         0.3459 
    134 H134       34.9764   -2.3965   -5.1466 H         1 UNK         0.0612 
    135 H135       33.8649   -1.1479   -5.6421 H         1 UNK         0.0612 
    136 H136       30.7041   -3.0757   -6.2805 H         1 UNK         0.0624 
    137 H137       31.5437   -1.5761   -6.5918 H         1 UNK         0.0624 
@<TRIPOS>BOND
     1    1    2 1    
     2    1   72 1    
     3    1   73 1    
     4    1   74 1    
     5    2    3 2    
     6    2    4 am   BACKBONE|DICT|INTERRES
     7    4    5 1    
     8    4   75 1    
     9    5    6 1    
    10    5   35 1    
    11    5   76 1    
    12    6    7 1    
    13    6   77 1    
    14    6   78 1    
    15    7    8 1    
    16    8    9 1    
    17    8   79 1    
    18    8   80 1    
    19    9   10 ar   
    20    9   14 ar   
    21   10   11 ar   
    22   10   81 1    
    23   11   12 ar   
    24   11   71 1    
    25   12   13 ar   
    26   12   82 1    
    27   13   14 ar   
    28   13   15 1    
    29   14   83 1    
    30   15   16 1    
    31   15   84 1    
    32   15   85 1    
    33   16   17 1    
    34   17   18 1    
    35   17   86 1    
    36   17   87 1    
    37   18   19 1    
    38   18   37 1    
    39   18   88 1    
    40   19   20 am   BACKBONE|DICT|INTERRES
    41   19   89 1    
    42   20   21 2    
    43   20   22 1    
    44   22   23 1    
    45   22   24 1    
    46   22   90 1    
    47   23   91 1    
    48   23   92 1    
    49   23   93 1    
    50   24   25 am   BACKBONE|DICT|INTERRES
    51   24   94 1    
    52   25   26 2    
    53   25   27 1    
    54   27   28 1    
    55   27   29 1    
    56   27   95 1    
    57   28   96 1    
    58   28   97 1    
    59   28   98 1    
    60   29   30 am   BACKBONE|DICT|INTERRES
    61   29   99 1    
    62   30   31 2    
    63   30   32 1    
    64   32   33 1    
    65   32   34 1    
    66   32  100 1    
    67   33  101 1    
    68   33  102 1    
    69   33  103 1    
    70   34   35 am   BACKBONE|DICT|INTERRES
    71   34  104 1    
    72   35   36 2    
    73   37   38 2    
    74   37   39 am   BACKBONE|DICT|INTERRES
    75   39   40 1    
    76   39  105 1    
    77   40   41 1    
    78   40   42 1    
    79   40  106 1    
    80   41  107 1    
    81   41  108 1    
    82   41  109 1    
    83   42   43 2    
    84   42   44 am   BACKBONE|DICT|INTERRES
    85   44   45 1    
    86   44  110 1    
    87   45   46 1    
    88   45   47 1    
    89   45  111 1    
    90   46  112 1    
    91   46  113 1    
    92   46  114 1    
    93   47   48 2    
    94   47   49 am   BACKBONE|DICT|INTERRES
    95   49   50 1    
    96   49  115 1    
    97   50   51 1    
    98   50   52 1    
    99   50  116 1    
   100   51  117 1    
   101   51  118 1    
   102   51  119 1    
   103   52   53 2    
   104   52   54 am   BACKBONE|DICT|INTERRES
   105   54   55 1    
   106   54  120 1    
   107   55   56 1    
   108   55   57 1    
   109   55  121 1    
   110   56  122 1    
   111   56  123 1    
   112   56  124 1    
   113   57   58 2    
   114   57   59 am   BACKBONE|DICT|INTERRES
   115   59   60 1    
   116   59  125 1    
   117   60   61 1    
   118   60   62 1    
   119   60  126 1    
   120   61  127 1    
   121   61  128 1    
   122   61  129 1    
   123   62   63 2    
   124   62   64 am   BACKBONE|DICT|INTERRES
   125   64   65 1    
   126   64  130 1    
   127   65   66 1    
   128   65   69 1    
   129   65  131 1    
   130   66   67 am   BACKBONE|DICT|INTERRES
   131   66   68 2    
   132   67  132 1    
   133   67  133 1    
   134   69   70 1    
   135   69  134 1    
   136   69  135 1    
   137   70   71 1    
   138   71  136 1    
   139   71  137 1    
@<TRIPOS>SUBSTRUCTURE
     1 UNK         1 GROUP             0       ****    0 ROOT    
