@<TRIPOS>MOLECULE
3R137
137   139    1
SMALL
USER_CHARGES


@<TRIPOS>ATOM
      1 CA         25.8751   -4.4134    2.4001 C.3       0 UNK        -0.2020 
      2 C          26.7479   -3.3906    1.6885 C.2       0 UNK         0.4855 
      3 O          27.1492   -2.3992    2.2982 O.2       0 UNK        -0.5197 
      4 N          27.0473   -3.6267    0.4043 N.am      1 UNK        -0.4892 
      5 CA         27.8752   -2.7576   -0.4461 C.3       1 UNK         0.0835 
      6 C6         28.2572   -3.4471   -1.7782 C.3       12 UNK        -0.0855 
      7 S7         29.0791   -5.0566   -1.5251 S.3       12 UNK        -0.2931 
      8 C8         30.8138   -4.6463   -1.9165 C.3       12 UNK         0.0378 
      9 C9         31.0649   -4.2395   -3.3689 C.ar      12 UNK        -0.0802 
     10 C10        32.1287   -3.3774   -3.6536 C.ar      12 UNK        -0.0944 
     11 C11        32.4305   -3.0228   -4.9709 C.ar      12 UNK        -0.0787 
     12 C12        31.6328   -3.5194   -6.0070 C.ar      12 UNK        -0.0862 
     13 C13        30.5481   -4.3625   -5.7473 C.ar      12 UNK        -0.0733 
     14 C14        30.2904   -4.7401   -4.4245 C.ar      12 UNK        -0.0832 
     15 C15        29.7269   -4.8788   -6.9319 C.3       12 UNK         0.0240 
     16 S16        28.0373   -5.4860   -6.5673 S.3       12 UNK        -0.2522 
     17 C17        27.1887   -4.0603   -5.8042 C.3       12 UNK        -0.0967 
     18 CA         26.7676   -2.9556   -6.8139 C.3       5 UNK         0.0660 
     19 N          25.4643   -2.3649   -6.4814 N.am      5 UNK        -0.4015 
     20 C          24.8240   -1.4386   -7.2140 C.2       4 UNK         0.4946 
     21 O          25.2382   -0.9959   -8.2851 O.2       4 UNK        -0.5353 
     22 CA         23.5718   -0.8177   -6.5913 C.3       4 UNK         0.0277 
     23 CB         22.5784   -1.8651   -6.0546 C.3       4 UNK        -0.1981 
     24 N          24.0414    0.0350   -5.5090 N.am      4 UNK        -0.4209 
     25 C          23.7916    1.3335   -5.3395 C.2       3 UNK         0.4942 
     26 O          22.9580    1.9633   -5.9920 O.2       3 UNK        -0.5208 
     27 CA         24.6557    2.0442   -4.2728 C.3       3 UNK         0.0250 
     28 CB         24.2489    3.5155   -4.0674 C.3       3 UNK        -0.1990 
     29 N          24.6633    1.3685   -2.9697 N.am      3 UNK        -0.4232 
     30 C          25.2275    0.1885   -2.6753 C.2       2 UNK         0.4993 
     31 O          25.8286   -0.5130   -3.4999 O.2       2 UNK        -0.5286 
     32 CA         25.0143   -0.3023   -1.2326 C.3       2 UNK         0.0209 
     33 CB         23.5469   -0.7125   -1.0138 C.3       2 UNK        -0.1931 
     34 N          25.8631   -1.4427   -0.8940 N.am      2 UNK        -0.4546 
     35 C          27.1934   -1.4062   -0.7398 C.2       1 UNK         0.5154 
     36 O          27.8695   -0.3786   -0.8104 O.2       1 UNK        -0.5181 
     37 C          27.8535   -1.8691   -6.9170 C.2       5 UNK         0.5014 
     38 O          28.5261   -1.7687   -7.9444 O.2       5 UNK        -0.5248 
     39 N          27.9642   -1.0446   -5.8631 N.am      6 UNK        -0.4434 
     40 CA         28.9463    0.0343   -5.7780 C.3       6 UNK         0.0363 
     41 CB         28.9676    0.6081   -4.3530 C.3       6 UNK        -0.1936 
     42 C          28.7114    1.1472   -6.8097 C.2       6 UNK         0.5081 
     43 O          29.6828    1.7376   -7.2748 O.2       6 UNK        -0.5248 
     44 N          27.4457    1.3959   -7.1757 N.am      7 UNK        -0.4718 
     45 CA         27.0763    2.3528   -8.2204 C.3       7 UNK         0.0273 
     46 CB         25.5833    2.6987   -8.1240 C.3       7 UNK        -0.1935 
     47 C          27.4297    1.8381   -9.6229 C.2       7 UNK         0.5018 
     48 O          28.0111    2.5885  -10.4065 O.2       7 UNK        -0.5186 
     49 N          27.1000    0.5685   -9.9047 N.am      8 UNK        -0.4240 
     50 CA         27.3945   -0.1029  -11.1734 C.3       8 UNK         0.0235 
     51 CB         26.6883   -1.4679  -11.2115 C.3       8 UNK        -0.2000 
     52 C          28.9012   -0.2656  -11.4297 C.2       8 UNK         0.4941 
     53 O          29.3543   -0.0237  -12.5491 O.2       8 UNK        -0.5273 
     54 N          29.6476   -0.6576  -10.3893 N.am      9 UNK        -0.4262 
     55 CA         31.0999   -0.8376  -10.4387 C.3       9 UNK         0.0264 
     56 CB         31.5001   -1.8345   -9.3445 C.3       9 UNK        -0.1955 
     57 C          31.8980    0.4730  -10.2951 C.2       9 UNK         0.5031 
     58 O          33.0963    0.4648  -10.5809 O.2       9 UNK        -0.5390 
     59 N          31.2401    1.5563   -9.8526 N.am      10 UNK        -0.4204 
     60 CA         31.8001    2.8769   -9.5323 C.3       10 UNK         0.0237 
     61 CB         32.3342    3.5786  -10.7995 C.3       10 UNK        -0.1985 
     62 C          32.8297    2.8155   -8.3842 C.2       10 UNK         0.4970 
     63 O          33.9097    3.4019   -8.4828 O.2       10 UNK        -0.4914 
     64 N          32.4693    2.0912   -7.3201 N.am      11 UNK        -0.4285 
     65 CA         33.2619    1.9200   -6.0960 C.3       11 UNK         0.1007 
     66 C          33.0689    3.1111   -5.1212 C.2       11 UNK         0.5703 
     67 N          34.0740    3.4142   -4.3108 N.am      11 UNK        -0.7361 
     68 O          32.0135    3.7399   -5.0647 O.2       11 UNK        -0.4986 
     69 C69        32.9481    0.5688   -5.3998 C.3       12 UNK        -0.0947 
     70 S70        33.3887   -0.8417   -6.4665 S.3       12 UNK        -0.2240 
     71 C71        33.6732   -2.1872   -5.2700 C.3       12 UNK         0.0194 
     72 H72        25.6034   -5.2432    1.7480 H         1 UNK         0.0906 
     73 H73        26.4015   -4.8197    3.2634 H         1 UNK         0.0906 
     74 H74        24.9568   -3.9433    2.7512 H         1 UNK         0.0906 
     75 H75        26.7259   -4.4793   -0.0328 H         1 UNK         0.3140 
     76 H76        28.7953   -2.5392    0.1010 H         1 UNK         0.1085 
     77 H77        27.3686   -3.6225   -2.3880 H         1 UNK         0.0836 
     78 H78        28.9017   -2.7959   -2.3725 H         1 UNK         0.0836 
     79 H79        31.4336   -5.5150   -1.6914 H         1 UNK         0.0731 
     80 H80        31.1376   -3.8522   -1.2416 H         1 UNK         0.0731 
     81 H81        32.7490   -3.0105   -2.8470 H         1 UNK         0.1312 
     82 H82        31.8765   -3.2681   -7.0282 H         1 UNK         0.1406 
     83 H83        29.4867   -5.4309   -4.2149 H         1 UNK         0.1631 
     84 H84        30.2818   -5.6993   -7.3885 H         1 UNK         0.0717 
     85 H85        29.6569   -4.1075   -7.6984 H         1 UNK         0.0717 
     86 H86        26.3013   -4.4816   -5.3291 H         1 UNK         0.0934 
     87 H87        27.7833   -3.6697   -4.9766 H         1 UNK         0.0934 
     88 H88        26.6555   -3.4029   -7.8042 H         1 UNK         0.0739 
     89 H89        25.0516   -2.6557   -5.6077 H         1 UNK         0.3093 
     90 H90        23.0750   -0.2235   -7.3618 H         1 UNK         0.0818 
     91 H91        21.6615   -1.3861   -5.7107 H         1 UNK         0.0819 
     92 H92        22.2980   -2.5741   -6.8349 H         1 UNK         0.0819 
     93 H93        22.9815   -2.4351   -5.2171 H         1 UNK         0.0819 
     94 H94        24.7400   -0.3652   -4.8833 H         1 UNK         0.3041 
     95 H95        25.6795    2.0399   -4.6524 H         1 UNK         0.0784 
     96 H96        24.2946    4.0716   -5.0049 H         1 UNK         0.0793 
     97 H97        23.2307    3.6027   -3.6863 H         1 UNK         0.0793 
     98 H98        24.9153    4.0182   -3.3661 H         1 UNK         0.0793 
     99 H99        24.1575    1.8437   -2.2358 H         1 UNK         0.3024 
    100 H100       25.2636    0.5177   -0.5549 H         1 UNK         0.1171 
    101 H101       23.3783   -1.0510    0.0089 H         1 UNK         0.0786 
    102 H102       22.8674    0.1228   -1.1873 H         1 UNK         0.0786 
    103 H103       23.2490   -1.5183   -1.6865 H         1 UNK         0.0786 
    104 H104       25.4078   -2.3404   -0.8231 H         1 UNK         0.2977 
    105 H105       27.3485   -1.1605   -5.0669 H         1 UNK         0.3127 
    106 H106       29.9248   -0.4031   -5.9875 H         1 UNK         0.0770 
    107 H107       28.0084    1.0469   -4.0779 H         1 UNK         0.0814 
    108 H108       29.7201    1.3924   -4.2594 H         1 UNK         0.0814 
    109 H109       29.2070   -0.1604   -3.6175 H         1 UNK         0.0814 
    110 H110       26.7109    0.8251   -6.7877 H         1 UNK         0.2983 
    111 H111       27.6432    3.2725   -8.0566 H         1 UNK         0.0947 
    112 H112       25.2921    3.3908   -8.9154 H         1 UNK         0.0806 
    113 H113       25.3516    3.1839   -7.1767 H         1 UNK         0.0806 
    114 H114       24.9513    1.8150   -8.2181 H         1 UNK         0.0806 
    115 H115       26.5899    0.0237   -9.2133 H         1 UNK         0.3000 
    116 H116       26.9874    0.5140  -11.9773 H         1 UNK         0.0850 
    117 H117       26.8874   -1.9868  -12.1501 H         1 UNK         0.0810 
    118 H118       25.6074   -1.3561  -11.1249 H         1 UNK         0.0810 
    119 H119       27.0210   -2.1169  -10.4000 H         1 UNK         0.0810 
    120 H120       29.1862   -0.8972   -9.5131 H         1 UNK         0.3040 
    121 H121       31.3676   -1.2735  -11.4037 H         1 UNK         0.0766 
    122 H122       31.2132   -1.4661   -8.3593 H         1 UNK         0.0812 
    123 H123       32.5779   -2.0023   -9.3351 H         1 UNK         0.0812 
    124 H124       31.0199   -2.8016   -9.4938 H         1 UNK         0.0812 
    125 H125       30.2625    1.4414   -9.6196 H         1 UNK         0.3205 
    126 H126       30.9663    3.4728   -9.1576 H         1 UNK         0.0754 
    127 H127       32.6323    4.6045  -10.5803 H         1 UNK         0.0769 
    128 H128       31.5721    3.6220  -11.5777 H         1 UNK         0.0769 
    129 H129       33.2058    3.0687  -11.2111 H         1 UNK         0.0769 
    130 H130       31.5118    1.7496   -7.2850 H         1 UNK         0.2981 
    131 H131       34.3160    1.9061   -6.3810 H         1 UNK         0.0541 
    132 H132       34.9413    2.9010   -4.3393 H         1 UNK         0.3459 
    133 H133       33.9648    4.1766   -3.6605 H         1 UNK         0.3459 
    134 H134       31.8943    0.4990   -5.1319 H         1 UNK         0.0612 
    135 H135       33.5097    0.4855   -4.4679 H         1 UNK         0.0612 
    136 H136       34.4299   -2.8526   -5.6870 H         1 UNK         0.0624 
    137 H137       34.1032   -1.7782   -4.3547 H         1 UNK         0.0624 
@<TRIPOS>BOND
     1    1    2 1    
     2    1   72 1    
     3    1   73 1    
     4    1   74 1    
     5    2    3 2    
     6    2    4 am   BACKBONE|DICT|INTERRES
     7    4    5 1    
     8    4   75 1    
     9    5    6 1    
    10    5   35 1    
    11    5   76 1    
    12    6    7 1    
    13    6   77 1    
    14    6   78 1    
    15    7    8 1    
    16    8    9 1    
    17    8   79 1    
    18    8   80 1    
    19    9   10 ar   
    20    9   14 ar   
    21   10   11 ar   
    22   10   81 1    
    23   11   12 ar   
    24   11   71 1    
    25   12   13 ar   
    26   12   82 1    
    27   13   14 ar   
    28   13   15 1    
    29   14   83 1    
    30   15   16 1    
    31   15   84 1    
    32   15   85 1    
    33   16   17 1    
    34   17   18 1    
    35   17   86 1    
    36   17   87 1    
    37   18   19 1    
    38   18   37 1    
    39   18   88 1    
    40   19   20 am   BACKBONE|DICT|INTERRES
    41   19   89 1    
    42   20   21 2    
    43   20   22 1    
    44   22   23 1    
    45   22   24 1    
    46   22   90 1    
    47   23   91 1    
    48   23   92 1    
    49   23   93 1    
    50   24   25 am   BACKBONE|DICT|INTERRES
    51   24   94 1    
    52   25   26 2    
    53   25   27 1    
    54   27   28 1    
    55   27   29 1    
    56   27   95 1    
    57   28   96 1    
    58   28   97 1    
    59   28   98 1    
    60   29   30 am   BACKBONE|DICT|INTERRES
    61   29   99 1    
    62   30   31 2    
    63   30   32 1    
    64   32   33 1    
    65   32   34 1    
    66   32  100 1    
    67   33  101 1    
    68   33  102 1    
    69   33  103 1    
    70   34   35 am   BACKBONE|DICT|INTERRES
    71   34  104 1    
    72   35   36 2    
    73   37   38 2    
    74   37   39 am   BACKBONE|DICT|INTERRES
    75   39   40 1    
    76   39  105 1    
    77   40   41 1    
    78   40   42 1    
    79   40  106 1    
    80   41  107 1    
    81   41  108 1    
    82   41  109 1    
    83   42   43 2    
    84   42   44 am   BACKBONE|DICT|INTERRES
    85   44   45 1    
    86   44  110 1    
    87   45   46 1    
    88   45   47 1    
    89   45  111 1    
    90   46  112 1    
    91   46  113 1    
    92   46  114 1    
    93   47   48 2    
    94   47   49 am   BACKBONE|DICT|INTERRES
    95   49   50 1    
    96   49  115 1    
    97   50   51 1    
    98   50   52 1    
    99   50  116 1    
   100   51  117 1    
   101   51  118 1    
   102   51  119 1    
   103   52   53 2    
   104   52   54 am   BACKBONE|DICT|INTERRES
   105   54   55 1    
   106   54  120 1    
   107   55   56 1    
   108   55   57 1    
   109   55  121 1    
   110   56  122 1    
   111   56  123 1    
   112   56  124 1    
   113   57   58 2    
   114   57   59 am   BACKBONE|DICT|INTERRES
   115   59   60 1    
   116   59  125 1    
   117   60   61 1    
   118   60   62 1    
   119   60  126 1    
   120   61  127 1    
   121   61  128 1    
   122   61  129 1    
   123   62   63 2    
   124   62   64 am   BACKBONE|DICT|INTERRES
   125   64   65 1    
   126   64  130 1    
   127   65   66 1    
   128   65   69 1    
   129   65  131 1    
   130   66   67 am   BACKBONE|DICT|INTERRES
   131   66   68 2    
   132   67  132 1    
   133   67  133 1    
   134   69   70 1    
   135   69  134 1    
   136   69  135 1    
   137   70   71 1    
   138   71  136 1    
   139   71  137 1    
@<TRIPOS>SUBSTRUCTURE
     1 UNK         1 GROUP             0       ****    0 ROOT    
