@<TRIPOS>MOLECULE
3R137
137   139    1
SMALL
USER_CHARGES


@<TRIPOS>ATOM
      1 CA         29.3208   -2.2510   -5.5764 C.3       0 UNK        -0.2020 
      2 C          28.4297   -2.8869   -4.5222 C.2       0 UNK         0.4855 
      3 O          27.3275   -2.3917   -4.2821 O.2       0 UNK        -0.5197 
      4 N          28.8991   -3.9875   -3.9149 N.am      1 UNK        -0.4892 
      5 CA         28.2408   -4.7671   -2.8539 C.3       1 UNK         0.0835 
      6 C6         28.2084   -4.0297   -1.4882 C.3       12 UNK        -0.0855 
      7 S7         29.8731   -4.0057   -0.7446 S.3       12 UNK        -0.2931 
      8 C8         29.7877   -2.5420    0.3343 C.3       12 UNK         0.0378 
      9 C9         29.9935   -1.2314   -0.4157 C.ar      12 UNK        -0.0802 
     10 C10        31.1087   -1.0511   -1.2405 C.ar      12 UNK        -0.0944 
     11 C11        31.3337    0.1706   -1.8806 C.ar      12 UNK        -0.0787 
     12 C12        30.4399    1.2268   -1.6811 C.ar      12 UNK        -0.0862 
     13 C13        29.3209    1.0597   -0.8577 C.ar      12 UNK        -0.0733 
     14 C14        29.1001   -0.1722   -0.2341 C.ar      12 UNK        -0.0832 
     15 C15        28.3605    2.2135   -0.6103 C.3       12 UNK         0.0240 
     16 S16        26.8548    2.0662   -1.6208 S.3       12 UNK        -0.2522 
     17 C17        27.4956    2.4420   -3.2871 C.3       12 UNK        -0.0967 
     18 CA         27.6461    1.1717   -4.1788 C.3       5 UNK         0.0660 
     19 N          26.4072    0.3981   -4.3339 N.am      5 UNK        -0.4015 
     20 C          25.2179    0.8576   -4.7492 C.2       4 UNK         0.4946 
     21 O          24.9978    2.0223   -5.0878 O.2       4 UNK        -0.5353 
     22 CA         24.0942   -0.1824   -4.8301 C.3       4 UNK         0.0277 
     23 CB         22.7311    0.4156   -5.2385 C.3       4 UNK        -0.1981 
     24 N          24.4973   -1.2244   -5.7674 N.am      4 UNK        -0.4209 
     25 C          24.0461   -2.4815   -5.7727 C.2       3 UNK         0.4942 
     26 O          23.1895   -2.9018   -4.9928 O.2       3 UNK        -0.5208 
     27 CA         24.6459   -3.4362   -6.8194 C.3       3 UNK         0.0250 
     28 CB         25.6275   -2.7700   -7.8075 C.3       3 UNK        -0.1990 
     29 N          25.3413   -4.5096   -6.1179 N.am      3 UNK        -0.4232 
     30 C          24.8365   -5.7215   -5.8558 C.2       2 UNK         0.4993 
     31 O          23.7353   -6.1086   -6.2505 O.2       2 UNK        -0.5286 
     32 CA         25.7130   -6.6840   -5.0337 C.3       2 UNK         0.0209 
     33 CB         26.1869   -7.8601   -5.9055 C.3       2 UNK        -0.1931 
     34 N          26.8869   -6.0403   -4.4336 N.am      2 UNK        -0.4546 
     35 C          26.8714   -5.3208   -3.3026 C.2       1 UNK         0.5154 
     36 O          25.8513   -5.1017   -2.6468 O.2       1 UNK        -0.5181 
     37 C          28.3055    1.4905   -5.5395 C.2       5 UNK         0.5014 
     38 O          27.7684    1.1520   -6.5996 O.2       5 UNK        -0.5248 
     39 N          29.4766    2.1443   -5.4714 N.am      6 UNK        -0.4434 
     40 CA         30.3541    2.5070   -6.5913 C.3       6 UNK         0.0363 
     41 CB         31.5709    3.2733   -6.0471 C.3       6 UNK        -0.1936 
     42 C          29.6843    3.3103   -7.7215 C.2       6 UNK         0.5081 
     43 O          30.1348    3.2346   -8.8642 O.2       6 UNK        -0.5248 
     44 N          28.6264    4.0617   -7.3880 N.am      7 UNK        -0.4718 
     45 CA         27.8079    4.8161   -8.3378 C.3       7 UNK         0.0273 
     46 CB         26.9213    5.8037   -7.5620 C.3       7 UNK        -0.1935 
     47 C          26.9453    3.9225   -9.2483 C.2       7 UNK         0.5018 
     48 O          26.6375    4.3385  -10.3662 O.2       7 UNK        -0.5186 
     49 N          26.5620    2.7321   -8.7647 N.am      8 UNK        -0.4240 
     50 CA         25.7660    1.7597   -9.5142 C.3       8 UNK         0.0235 
     51 CB         24.8436    1.0002   -8.5515 C.3       8 UNK        -0.2000 
     52 C          26.6639    0.7904  -10.2939 C.2       8 UNK         0.4941 
     53 O          26.3939    0.5342  -11.4680 O.2       8 UNK        -0.5273 
     54 N          27.7204    0.2868   -9.6451 N.am      9 UNK        -0.4262 
     55 CA         28.7513   -0.5513  -10.2508 C.3       9 UNK         0.0264 
     56 CB         28.3260   -2.0305  -10.2338 C.3       9 UNK        -0.1955 
     57 C          30.0335   -0.3328   -9.4494 C.2       9 UNK         0.5031 
     58 O          29.9873   -0.4493   -8.2255 O.2       9 UNK        -0.5390 
     59 N          31.1334   -0.0015  -10.1380 N.am      10 UNK        -0.4204 
     60 CA         32.4158    0.3823   -9.5407 C.3       10 UNK         0.0237 
     61 CB         33.4083    0.7447  -10.6579 C.3       10 UNK        -0.1985 
     62 C          33.0094   -0.6997   -8.6218 C.2       10 UNK         0.4970 
     63 O          33.0757   -1.8662   -9.0164 O.2       10 UNK        -0.4914 
     64 N          33.4535   -0.2765   -7.4330 N.am      11 UNK        -0.4285 
     65 CA         34.0803   -1.1346   -6.4154 C.3       11 UNK         0.1007 
     66 C          35.5430   -1.5600   -6.7403 C.2       11 UNK         0.5703 
     67 N          36.2049   -0.9789   -7.7345 N.am      11 UNK        -0.7361 
     68 O          36.0852   -2.4432   -6.0802 O.2       11 UNK        -0.4986 
     69 C69        33.9884   -0.4953   -5.0047 C.3       12 UNK        -0.0947 
     70 S70        32.2692   -0.2836   -4.4379 S.3       12 UNK        -0.2240 
     71 C71        32.5627    0.3457   -2.7584 C.3       12 UNK         0.0194 
     72 H72        30.2799   -2.7595   -5.6702 H         1 UNK         0.0906 
     73 H73        28.8308   -2.2712   -6.5487 H         1 UNK         0.0906 
     74 H74        29.5200   -1.2111   -5.3246 H         1 UNK         0.0906 
     75 H75        29.8173   -4.3232   -4.1713 H         1 UNK         0.3140 
     76 H76        28.8514   -5.6620   -2.7176 H         1 UNK         0.1085 
     77 H77        27.8247   -3.0140   -1.6000 H         1 UNK         0.0836 
     78 H78        27.5504   -4.5332   -0.7774 H         1 UNK         0.0836 
     79 H79        28.8367   -2.5474    0.8694 H         1 UNK         0.0731 
     80 H80        30.5661   -2.6266    1.0936 H         1 UNK         0.0731 
     81 H81        31.8091   -1.8635   -1.3795 H         1 UNK         0.1312 
     82 H82        30.6238    2.1807   -2.1551 H         1 UNK         0.1406 
     83 H83        28.2393   -0.2957    0.4095 H         1 UNK         0.1631 
     84 H84        28.8437    3.1729   -0.8019 H         1 UNK         0.0717 
     85 H85        28.0742    2.2270    0.4424 H         1 UNK         0.0717 
     86 H86        26.8270    3.1686   -3.7507 H         1 UNK         0.0934 
     87 H87        28.4447    2.9658   -3.1744 H         1 UNK         0.0934 
     88 H88        28.3361    0.4934   -3.6741 H         1 UNK         0.0739 
     89 H89        26.5112   -0.5996   -4.1657 H         1 UNK         0.3093 
     90 H90        23.9951   -0.6177   -3.8331 H         1 UNK         0.0818 
     91 H91        21.9421   -0.3359   -5.2124 H         1 UNK         0.0819 
     92 H92        22.4364    1.2150   -4.5575 H         1 UNK         0.0819 
     93 H93        22.7589    0.8356   -6.2437 H         1 UNK         0.0819 
     94 H94        25.2325   -0.9715   -6.4125 H         1 UNK         0.3041 
     95 H95        23.8133   -3.8403   -7.3990 H         1 UNK         0.0784 
     96 H96        25.1323   -1.9997   -8.3990 H         1 UNK         0.0793 
     97 H97        26.4820   -2.3158   -7.3045 H         1 UNK         0.0793 
     98 H98        26.0173   -3.5023   -8.5150 H         1 UNK         0.0793 
     99 H99        26.2180   -4.2626   -5.6813 H         1 UNK         0.3024 
    100 H100       25.0837   -7.0826   -4.2342 H         1 UNK         0.1171 
    101 H101       25.3392   -8.3927   -6.3391 H         1 UNK         0.0786 
    102 H102       26.7553   -8.5841   -5.3213 H         1 UNK         0.0786 
    103 H103       26.8162   -7.5239   -6.7306 H         1 UNK         0.0786 
    104 H104       27.7665   -6.1606   -4.9163 H         1 UNK         0.2977 
    105 H105       29.8428    2.3592   -4.5570 H         1 UNK         0.3127 
    106 H106       30.7196    1.5769   -7.0215 H         1 UNK         0.0770 
    107 H107       31.2766    4.2042   -5.5607 H         1 UNK         0.0814 
    108 H108       32.2610    3.5317   -6.8517 H         1 UNK         0.0814 
    109 H109       32.1297    2.6780   -5.3251 H         1 UNK         0.0814 
    110 H110       28.3306    4.0673   -6.4231 H         1 UNK         0.2983 
    111 H111       28.4777    5.3894   -8.9829 H         1 UNK         0.0947 
    112 H112       26.3154    6.4022   -8.2440 H         1 UNK         0.0806 
    113 H113       27.5204    6.4968   -6.9711 H         1 UNK         0.0806 
    114 H114       26.2373    5.2878   -6.8864 H         1 UNK         0.0806 
    115 H115       26.9058    2.4334   -7.8566 H         1 UNK         0.3000 
    116 H116       25.1325    2.2829  -10.2342 H         1 UNK         0.0850 
    117 H117       24.2213    0.2818   -9.0865 H         1 UNK         0.0810 
    118 H118       25.4168    0.4543   -7.8044 H         1 UNK         0.0810 
    119 H119       24.1767    1.6842   -8.0267 H         1 UNK         0.0810 
    120 H120       27.8931    0.5440   -8.6761 H         1 UNK         0.3040 
    121 H121       28.9138   -0.2348  -11.2835 H         1 UNK         0.0766 
    122 H122       28.2035   -2.3996   -9.2154 H         1 UNK         0.0812 
    123 H123       29.0776   -2.6555  -10.7174 H         1 UNK         0.0812 
    124 H124       27.3854   -2.1831  -10.7630 H         1 UNK         0.0812 
    125 H125       31.0800    0.0386  -11.1452 H         1 UNK         0.3205 
    126 H126       32.2328    1.2813   -8.9489 H         1 UNK         0.0754 
    127 H127       34.3650    1.0657  -10.2437 H         1 UNK         0.0769 
    128 H128       33.0338    1.5641  -11.2720 H         1 UNK         0.0769 
    129 H129       33.6055   -0.1050  -11.3132 H         1 UNK         0.0769 
    130 H130       33.3670    0.6980   -7.1895 H         1 UNK         0.2981 
    131 H131       33.5105   -2.0656   -6.3847 H         1 UNK         0.0541 
    132 H132       35.7727   -0.2549   -8.2842 H         1 UNK         0.3459 
    133 H133       37.1490   -1.2698   -7.9340 H         1 UNK         0.3459 
    134 H134       34.4890    0.4745   -4.9872 H         1 UNK         0.0612 
    135 H135       34.4990   -1.1207   -4.2698 H         1 UNK         0.0612 
    136 H136       32.8528    1.3959   -2.8140 H         1 UNK         0.0624 
    137 H137       33.4042   -0.1835   -2.3087 H         1 UNK         0.0624 
@<TRIPOS>BOND
     1    1    2 1    
     2    1   72 1    
     3    1   73 1    
     4    1   74 1    
     5    2    3 2    
     6    2    4 am   BACKBONE|DICT|INTERRES
     7    4    5 1    
     8    4   75 1    
     9    5    6 1    
    10    5   35 1    
    11    5   76 1    
    12    6    7 1    
    13    6   77 1    
    14    6   78 1    
    15    7    8 1    
    16    8    9 1    
    17    8   79 1    
    18    8   80 1    
    19    9   10 ar   
    20    9   14 ar   
    21   10   11 ar   
    22   10   81 1    
    23   11   12 ar   
    24   11   71 1    
    25   12   13 ar   
    26   12   82 1    
    27   13   14 ar   
    28   13   15 1    
    29   14   83 1    
    30   15   16 1    
    31   15   84 1    
    32   15   85 1    
    33   16   17 1    
    34   17   18 1    
    35   17   86 1    
    36   17   87 1    
    37   18   19 1    
    38   18   37 1    
    39   18   88 1    
    40   19   20 am   BACKBONE|DICT|INTERRES
    41   19   89 1    
    42   20   21 2    
    43   20   22 1    
    44   22   23 1    
    45   22   24 1    
    46   22   90 1    
    47   23   91 1    
    48   23   92 1    
    49   23   93 1    
    50   24   25 am   BACKBONE|DICT|INTERRES
    51   24   94 1    
    52   25   26 2    
    53   25   27 1    
    54   27   28 1    
    55   27   29 1    
    56   27   95 1    
    57   28   96 1    
    58   28   97 1    
    59   28   98 1    
    60   29   30 am   BACKBONE|DICT|INTERRES
    61   29   99 1    
    62   30   31 2    
    63   30   32 1    
    64   32   33 1    
    65   32   34 1    
    66   32  100 1    
    67   33  101 1    
    68   33  102 1    
    69   33  103 1    
    70   34   35 am   BACKBONE|DICT|INTERRES
    71   34  104 1    
    72   35   36 2    
    73   37   38 2    
    74   37   39 am   BACKBONE|DICT|INTERRES
    75   39   40 1    
    76   39  105 1    
    77   40   41 1    
    78   40   42 1    
    79   40  106 1    
    80   41  107 1    
    81   41  108 1    
    82   41  109 1    
    83   42   43 2    
    84   42   44 am   BACKBONE|DICT|INTERRES
    85   44   45 1    
    86   44  110 1    
    87   45   46 1    
    88   45   47 1    
    89   45  111 1    
    90   46  112 1    
    91   46  113 1    
    92   46  114 1    
    93   47   48 2    
    94   47   49 am   BACKBONE|DICT|INTERRES
    95   49   50 1    
    96   49  115 1    
    97   50   51 1    
    98   50   52 1    
    99   50  116 1    
   100   51  117 1    
   101   51  118 1    
   102   51  119 1    
   103   52   53 2    
   104   52   54 am   BACKBONE|DICT|INTERRES
   105   54   55 1    
   106   54  120 1    
   107   55   56 1    
   108   55   57 1    
   109   55  121 1    
   110   56  122 1    
   111   56  123 1    
   112   56  124 1    
   113   57   58 2    
   114   57   59 am   BACKBONE|DICT|INTERRES
   115   59   60 1    
   116   59  125 1    
   117   60   61 1    
   118   60   62 1    
   119   60  126 1    
   120   61  127 1    
   121   61  128 1    
   122   61  129 1    
   123   62   63 2    
   124   62   64 am   BACKBONE|DICT|INTERRES
   125   64   65 1    
   126   64  130 1    
   127   65   66 1    
   128   65   69 1    
   129   65  131 1    
   130   66   67 am   BACKBONE|DICT|INTERRES
   131   66   68 2    
   132   67  132 1    
   133   67  133 1    
   134   69   70 1    
   135   69  134 1    
   136   69  135 1    
   137   70   71 1    
   138   71  136 1    
   139   71  137 1    
@<TRIPOS>SUBSTRUCTURE
     1 UNK         1 GROUP             0       ****    0 ROOT    
