@<TRIPOS>MOLECULE
3R137
137   139    1
SMALL
USER_CHARGES


@<TRIPOS>ATOM
      1 CA         25.3573   -6.5238    1.9484 C.3       0 UNK        -0.2020 
      2 C          25.8530   -5.0927    1.8045 C.2       0 UNK         0.4855 
      3 O          25.3345   -4.1970    2.4710 O.2       0 UNK        -0.5197 
      4 N          26.8568   -4.8736    0.9439 N.am      1 UNK        -0.4892 
      5 CA         27.4415   -3.5596    0.6468 C.3       1 UNK         0.0835 
      6 C6         28.7785   -3.7181   -0.1214 C.3       12 UNK        -0.0855 
      7 S7         29.8092   -2.2112   -0.1659 S.3       12 UNK        -0.2931 
      8 C8         29.3134   -1.4159   -1.7311 C.3       12 UNK         0.0378 
      9 C9         29.9010   -2.0922   -2.9631 C.ar      12 UNK        -0.0802 
     10 C10        31.0967   -1.6249   -3.5131 C.ar      12 UNK        -0.0944 
     11 C11        31.6159   -2.1925   -4.6816 C.ar      12 UNK        -0.0787 
     12 C12        30.9538   -3.2761   -5.2711 C.ar      12 UNK        -0.0862 
     13 C13        29.7710   -3.7740   -4.7133 C.ar      12 UNK        -0.0733 
     14 C14        29.2344   -3.1539   -3.5809 C.ar      12 UNK        -0.0832 
     15 C15        29.1047   -5.0195   -5.2888 C.3       12 UNK         0.0240 
     16 S16        28.1116   -4.6991   -6.7806 S.3       12 UNK        -0.2522 
     17 C17        26.7467   -3.6743   -6.1293 C.3       12 UNK        -0.0967 
     18 CA         26.5046   -2.3910   -6.9592 C.3       5 UNK         0.0660 
     19 N          25.3146   -1.6653   -6.5150 N.am      5 UNK        -0.4015 
     20 C          24.6961   -0.7176   -7.2358 C.2       4 UNK         0.4946 
     21 O          25.0198   -0.4066   -8.3820 O.2       4 UNK        -0.5353 
     22 CA         23.5516    0.0438   -6.5452 C.3       4 UNK         0.0277 
     23 CB         22.2269   -0.7222   -6.6886 C.3       4 UNK        -0.1981 
     24 N          23.8213    0.3034   -5.1286 N.am      4 UNK        -0.4209 
     25 C          24.8158    1.0834   -4.6796 C.2       3 UNK         0.4942 
     26 O          25.5581    1.7309   -5.4164 O.2       3 UNK        -0.5208 
     27 CA         25.0550    1.1119   -3.1599 C.3       3 UNK         0.0250 
     28 CB         24.2966    2.2843   -2.5185 C.3       3 UNK        -0.1990 
     29 N          24.6947   -0.1376   -2.4792 N.am      3 UNK        -0.4232 
     30 C          25.2798   -1.3233   -2.6984 C.2       2 UNK         0.4993 
     31 O          26.1743   -1.5027   -3.5291 O.2       2 UNK        -0.5286 
     32 CA         24.7306   -2.5216   -1.9046 C.3       2 UNK         0.0209 
     33 CB         24.0806   -3.5387   -2.8579 C.3       2 UNK        -0.1931 
     34 N          25.7596   -3.1983   -1.1109 N.am      2 UNK        -0.4546 
     35 C          26.4358   -2.6465   -0.0912 C.2       1 UNK         0.5154 
     36 O          26.2649   -1.4888    0.2946 O.2       1 UNK        -0.5181 
     37 C          27.7263   -1.4537   -6.9979 C.2       5 UNK         0.5014 
     38 O          28.4578   -1.4763   -7.9868 O.2       5 UNK        -0.5248 
     39 N          27.8903   -0.6063   -5.9695 N.am      6 UNK        -0.4434 
     40 CA         28.9453    0.4113   -5.9124 C.3       6 UNK         0.0363 
     41 CB         28.8922    1.1608   -4.5727 C.3       6 UNK        -0.1936 
     42 C          28.8825    1.4035   -7.0860 C.2       6 UNK         0.5081 
     43 O          29.9118    1.6871   -7.7000 O.2       6 UNK        -0.5248 
     44 N          27.6680    1.8756   -7.4006 N.am      7 UNK        -0.4718 
     45 CA         27.3757    2.7409   -8.5437 C.3       7 UNK         0.0273 
     46 CB         25.9236    3.2361   -8.4551 C.3       7 UNK        -0.1935 
     47 C          27.6385    2.0599   -9.8974 C.2       7 UNK         0.5018 
     48 O          28.2062    2.6973  -10.7845 O.2       7 UNK        -0.5186 
     49 N          27.2427    0.7846  -10.0292 N.am      8 UNK        -0.4240 
     50 CA         27.4788   -0.0348  -11.2218 C.3       8 UNK         0.0235 
     51 CB         26.6560   -1.3304  -11.1385 C.3       8 UNK        -0.2000 
     52 C          28.9678   -0.3482  -11.4463 C.2       8 UNK         0.4941 
     53 O          29.4371   -0.2618  -12.5818 O.2       8 UNK        -0.5273 
     54 N          29.6833   -0.6928  -10.3664 N.am      9 UNK        -0.4262 
     55 CA         31.1259   -0.9457  -10.3651 C.3       9 UNK         0.0264 
     56 CB         31.5225   -1.6193   -9.0399 C.3       9 UNK        -0.1955 
     57 C          31.9625    0.3260  -10.5842 C.2       9 UNK         0.5031 
     58 O          33.0551    0.2309  -11.1450 O.2       9 UNK        -0.5390 
     59 N          31.4463    1.4752  -10.1203 N.am      10 UNK        -0.4204 
     60 CA         32.0834    2.7977  -10.0938 C.3       10 UNK         0.0237 
     61 CB         32.3243    3.3331  -11.5213 C.3       10 UNK        -0.1985 
     62 C          33.3468    2.8194   -9.2100 C.2       10 UNK         0.4970 
     63 O          34.3115    3.5200   -9.5222 O.2       10 UNK        -0.4914 
     64 N          33.3136    2.0379   -8.1242 N.am      11 UNK        -0.4285 
     65 CA         34.4061    1.8666   -7.1563 C.3       11 UNK         0.1007 
     66 C          34.5505    3.0208   -6.1211 C.2       11 UNK         0.5703 
     67 N          33.6263    3.9719   -6.0489 N.am      11 UNK        -0.7361 
     68 O          35.5314    3.0631   -5.3820 O.2       11 UNK        -0.4986 
     69 C69        34.3409    0.4679   -6.4848 C.3       12 UNK        -0.0947 
     70 S70        32.7402    0.1337   -5.6793 S.3       12 UNK        -0.2240 
     71 C71        32.8967   -1.6386   -5.2938 C.3       12 UNK         0.0194 
     72 H72        24.3028   -6.5840    1.6803 H         1 UNK         0.0906 
     73 H73        25.9089   -7.2144    1.3106 H         1 UNK         0.0906 
     74 H74        25.4657   -6.8563    2.9805 H         1 UNK         0.0906 
     75 H75        27.2481   -5.6564    0.4387 H         1 UNK         0.3140 
     76 H76        27.6609   -3.0823    1.6050 H         1 UNK         0.1085 
     77 H77        29.3858   -4.4734    0.3806 H         1 UNK         0.0836 
     78 H78        28.6159   -4.1131   -1.1209 H         1 UNK         0.0836 
     79 H79        28.2290   -1.3710   -1.8116 H         1 UNK         0.0731 
     80 H80        29.6452   -0.3775   -1.6921 H         1 UNK         0.0731 
     81 H81        31.6121   -0.7955   -3.0483 H         1 UNK         0.1312 
     82 H82        31.3611   -3.7411   -6.1584 H         1 UNK         0.1406 
     83 H83        28.2971   -3.5053   -3.1753 H         1 UNK         0.1631 
     84 H84        29.8748   -5.7507   -5.5388 H         1 UNK         0.0717 
     85 H85        28.4733   -5.4978   -4.5382 H         1 UNK         0.0717 
     86 H86        25.8460   -4.2900   -6.1355 H         1 UNK         0.0934 
     87 H87        26.9263   -3.4273   -5.0847 H         1 UNK         0.0934 
     88 H88        26.3165   -2.7074   -7.9876 H         1 UNK         0.0739 
     89 H89        25.0354   -1.8079   -5.5550 H         1 UNK         0.3093 
     90 H90        23.4465    1.0076   -7.0483 H         1 UNK         0.0818 
     91 H91        21.3932   -0.1537   -6.2760 H         1 UNK         0.0819 
     92 H92        21.9989   -0.9106   -7.7388 H         1 UNK         0.0819 
     93 H93        22.2580   -1.6886   -6.1838 H         1 UNK         0.0819 
     94 H94        23.2418   -0.1728   -4.4530 H         1 UNK         0.3041 
     95 H95        26.1238    1.2717   -3.0035 H         1 UNK         0.0784 
     96 H96        24.5674    3.2291   -2.9924 H         1 UNK         0.0793 
     97 H97        23.2162    2.1696   -2.6145 H         1 UNK         0.0793 
     98 H98        24.5329    2.3776   -1.4583 H         1 UNK         0.0793 
     99 H99        23.9714   -0.0726   -1.7769 H         1 UNK         0.3024 
    100 H100       23.9645   -2.1657   -1.2121 H         1 UNK         0.1171 
    101 H101       23.6164   -4.3573   -2.3075 H         1 UNK         0.0786 
    102 H102       23.2984   -3.0714   -3.4577 H         1 UNK         0.0786 
    103 H103       24.8076   -3.9695   -3.5476 H         1 UNK         0.0786 
    104 H104       25.9538   -4.1595   -1.3483 H         1 UNK         0.2977 
    105 H105       27.2669   -0.6784   -5.1732 H         1 UNK         0.3127 
    106 H106       29.8937   -0.1227   -5.9733 H         1 UNK         0.0770 
    107 H107       28.0437    1.8422   -4.5172 H         1 UNK         0.0814 
    108 H108       29.7954    1.7555   -4.4313 H         1 UNK         0.0814 
    109 H109       28.8184    0.4735   -3.7340 H         1 UNK         0.0814 
    110 H110       26.8855    1.6358   -6.7959 H         1 UNK         0.2983 
    111 H111       28.0370    3.6077   -8.4781 H         1 UNK         0.0947 
    112 H112       25.6868    3.9044   -9.2841 H         1 UNK         0.0806 
    113 H113       25.7496    3.7889   -7.5317 H         1 UNK         0.0806 
    114 H114       25.2126    2.4097   -8.4869 H         1 UNK         0.0806 
    115 H115       26.7356    0.3473   -9.2661 H         1 UNK         0.3000 
    116 H116       27.1278    0.5318  -12.0870 H         1 UNK         0.0850 
    117 H117       26.7983   -1.9415  -12.0307 H         1 UNK         0.0810 
    118 H118       25.5898   -1.1181  -11.0571 H         1 UNK         0.0810 
    119 H119       26.9423   -1.9363  -10.2786 H         1 UNK         0.0810 
    120 H120       29.1995   -0.8184   -9.4762 H         1 UNK         0.3040 
    121 H121       31.3500   -1.6353  -11.1815 H         1 UNK         0.0766 
    122 H122       31.0074   -2.5713   -8.9093 H         1 UNK         0.0812 
    123 H123       31.2783   -0.9922   -8.1814 H         1 UNK         0.0812 
    124 H124       32.5940   -1.8204   -9.0043 H         1 UNK         0.0812 
    125 H125       30.5783    1.4163   -9.5957 H         1 UNK         0.3205 
    126 H126       31.3666    3.4634   -9.6109 H         1 UNK         0.0754 
    127 H127       32.6612    4.3701  -11.4979 H         1 UNK         0.0769 
    128 H128       31.4089    3.3034  -12.1127 H         1 UNK         0.0769 
    129 H129       33.0844    2.7567  -12.0494 H         1 UNK         0.0769 
    130 H130       32.4628    1.5335   -7.9149 H         1 UNK         0.2981 
    131 H131       35.3378    1.8876   -7.7248 H         1 UNK         0.0541 
    132 H132       32.8165    3.9414   -6.6465 H         1 UNK         0.3459 
    133 H133       33.7355    4.7173   -5.3798 H         1 UNK         0.3459 
    134 H134       35.1415    0.3433   -5.7534 H         1 UNK         0.0612 
    135 H135       34.5052   -0.3006   -7.2417 H         1 UNK         0.0612 
    136 H136       33.7228   -1.7853   -4.5969 H         1 UNK         0.0624 
    137 H137       33.1519   -2.1785   -6.2069 H         1 UNK         0.0624 
@<TRIPOS>BOND
     1    1    2 1    
     2    1   72 1    
     3    1   73 1    
     4    1   74 1    
     5    2    3 2    
     6    2    4 am   BACKBONE|DICT|INTERRES
     7    4    5 1    
     8    4   75 1    
     9    5    6 1    
    10    5   35 1    
    11    5   76 1    
    12    6    7 1    
    13    6   77 1    
    14    6   78 1    
    15    7    8 1    
    16    8    9 1    
    17    8   79 1    
    18    8   80 1    
    19    9   10 ar   
    20    9   14 ar   
    21   10   11 ar   
    22   10   81 1    
    23   11   12 ar   
    24   11   71 1    
    25   12   13 ar   
    26   12   82 1    
    27   13   14 ar   
    28   13   15 1    
    29   14   83 1    
    30   15   16 1    
    31   15   84 1    
    32   15   85 1    
    33   16   17 1    
    34   17   18 1    
    35   17   86 1    
    36   17   87 1    
    37   18   19 1    
    38   18   37 1    
    39   18   88 1    
    40   19   20 am   BACKBONE|DICT|INTERRES
    41   19   89 1    
    42   20   21 2    
    43   20   22 1    
    44   22   23 1    
    45   22   24 1    
    46   22   90 1    
    47   23   91 1    
    48   23   92 1    
    49   23   93 1    
    50   24   25 am   BACKBONE|DICT|INTERRES
    51   24   94 1    
    52   25   26 2    
    53   25   27 1    
    54   27   28 1    
    55   27   29 1    
    56   27   95 1    
    57   28   96 1    
    58   28   97 1    
    59   28   98 1    
    60   29   30 am   BACKBONE|DICT|INTERRES
    61   29   99 1    
    62   30   31 2    
    63   30   32 1    
    64   32   33 1    
    65   32   34 1    
    66   32  100 1    
    67   33  101 1    
    68   33  102 1    
    69   33  103 1    
    70   34   35 am   BACKBONE|DICT|INTERRES
    71   34  104 1    
    72   35   36 2    
    73   37   38 2    
    74   37   39 am   BACKBONE|DICT|INTERRES
    75   39   40 1    
    76   39  105 1    
    77   40   41 1    
    78   40   42 1    
    79   40  106 1    
    80   41  107 1    
    81   41  108 1    
    82   41  109 1    
    83   42   43 2    
    84   42   44 am   BACKBONE|DICT|INTERRES
    85   44   45 1    
    86   44  110 1    
    87   45   46 1    
    88   45   47 1    
    89   45  111 1    
    90   46  112 1    
    91   46  113 1    
    92   46  114 1    
    93   47   48 2    
    94   47   49 am   BACKBONE|DICT|INTERRES
    95   49   50 1    
    96   49  115 1    
    97   50   51 1    
    98   50   52 1    
    99   50  116 1    
   100   51  117 1    
   101   51  118 1    
   102   51  119 1    
   103   52   53 2    
   104   52   54 am   BACKBONE|DICT|INTERRES
   105   54   55 1    
   106   54  120 1    
   107   55   56 1    
   108   55   57 1    
   109   55  121 1    
   110   56  122 1    
   111   56  123 1    
   112   56  124 1    
   113   57   58 2    
   114   57   59 am   BACKBONE|DICT|INTERRES
   115   59   60 1    
   116   59  125 1    
   117   60   61 1    
   118   60   62 1    
   119   60  126 1    
   120   61  127 1    
   121   61  128 1    
   122   61  129 1    
   123   62   63 2    
   124   62   64 am   BACKBONE|DICT|INTERRES
   125   64   65 1    
   126   64  130 1    
   127   65   66 1    
   128   65   69 1    
   129   65  131 1    
   130   66   67 am   BACKBONE|DICT|INTERRES
   131   66   68 2    
   132   67  132 1    
   133   67  133 1    
   134   69   70 1    
   135   69  134 1    
   136   69  135 1    
   137   70   71 1    
   138   71  136 1    
   139   71  137 1    
@<TRIPOS>SUBSTRUCTURE
     1 UNK         1 GROUP             0       ****    0 ROOT    
