@<TRIPOS>MOLECULE
3R137
137   139    1
SMALL
USER_CHARGES


@<TRIPOS>ATOM
      1 CA         22.8265   -3.3974   -1.0386 C.3       0 UNK        -0.2020 
      2 C          24.2924   -3.0440   -0.8422 C.2       0 UNK         0.4855 
      3 O          24.6045   -1.9354   -0.4065 O.2       0 UNK        -0.5197 
      4 N          25.1971   -3.9810   -1.1547 N.am      1 UNK        -0.4892 
      5 CA         26.6472   -3.8043   -1.0266 C.3       1 UNK         0.0835 
      6 C6         27.3934   -5.1586   -1.0912 C.3       12 UNK        -0.0855 
      7 S7         29.0373   -5.0799   -0.2951 S.3       12 UNK        -0.2931 
      8 C8         30.0699   -6.0729   -1.4193 C.3       12 UNK         0.0378 
      9 C9         30.4130   -5.3360   -2.7072 C.ar      12 UNK        -0.0802 
     10 C10        31.5276   -4.4911   -2.7663 C.ar      12 UNK        -0.0944 
     11 C11        31.8795   -3.8651   -3.9674 C.ar      12 UNK        -0.0787 
     12 C12        31.0919   -4.0641   -5.1043 C.ar      12 UNK        -0.0862 
     13 C13        29.9736   -4.8988   -5.0541 C.ar      12 UNK        -0.0733 
     14 C14        29.6459   -5.5402   -3.8577 C.ar      12 UNK        -0.0832 
     15 C15        29.1258   -5.1276   -6.2940 C.3       12 UNK         0.0240 
     16 S16        27.5966   -4.1497   -6.2309 S.3       12 UNK        -0.2522 
     17 C17        28.2387   -2.4663   -6.5138 C.3       12 UNK        -0.0967 
     18 CA         27.0978   -1.5059   -6.9125 C.3       5 UNK         0.0660 
     19 N          26.1092   -1.3435   -5.8380 N.am      5 UNK        -0.4015 
     20 C          24.9032   -0.7775   -5.9922 C.2       4 UNK         0.4946 
     21 O          24.5059   -0.2865   -7.0500 O.2       4 UNK        -0.5353 
     22 CA         24.0054   -0.7209   -4.7498 C.3       4 UNK         0.0277 
     23 CB         23.3969   -2.0991   -4.4459 C.3       4 UNK        -0.1981 
     24 N          24.7504   -0.2254   -3.5913 N.am      4 UNK        -0.4209 
     25 C          24.9700    1.0761   -3.3514 C.2       3 UNK         0.4942 
     26 O          24.4644    1.9861   -4.0087 O.2       3 UNK        -0.5208 
     27 CA         25.9272    1.4381   -2.2012 C.3       3 UNK         0.0250 
     28 CB         25.1440    1.6849   -0.9021 C.3       3 UNK        -0.1990 
     29 N          26.9669    0.4340   -1.9624 N.am      3 UNK        -0.4232 
     30 C          27.9451    0.1280   -2.8281 C.2       2 UNK         0.4993 
     31 O          28.0850    0.6741   -3.9192 O.2       2 UNK        -0.5286 
     32 CA         28.8977   -1.0137   -2.4365 C.3       2 UNK         0.0209 
     33 CB         30.0915   -0.4635   -1.6417 C.3       2 UNK        -0.1931 
     34 N          28.2518   -2.0742   -1.6603 N.am      2 UNK        -0.4546 
     35 C          27.1859   -2.7841   -2.0524 C.2       1 UNK         0.5154 
     36 O          26.6234   -2.6319   -3.1425 O.2       1 UNK        -0.5181 
     37 C          27.6355   -0.1704   -7.4706 C.2       5 UNK         0.5014 
     38 O          28.0807   -0.1464   -8.6186 O.2       5 UNK        -0.5248 
     39 N          27.5155    0.9252   -6.7044 N.am      6 UNK        -0.4434 
     40 CA         27.7630    2.3113   -7.1181 C.3       6 UNK         0.0363 
     41 CB         27.4444    3.2588   -5.9509 C.3       6 UNK        -0.1936 
     42 C          27.0018    2.7563   -8.3819 C.2       6 UNK         0.5081 
     43 O          27.4739    3.6594   -9.0725 O.2       6 UNK        -0.5248 
     44 N          25.8831    2.0910   -8.7111 N.am      7 UNK        -0.4718 
     45 CA         25.1609    2.2481   -9.9795 C.3       7 UNK         0.0273 
     46 CB         23.8663    1.4222   -9.9268 C.3       7 UNK        -0.1935 
     47 C          25.9921    1.8661  -11.2231 C.2       7 UNK         0.5018 
     48 O          25.7041    2.3672  -12.3104 O.2       7 UNK        -0.5186 
     49 N          27.0134    1.0173  -11.0409 N.am      8 UNK        -0.4240 
     50 CA         28.0090    0.6418  -12.0460 C.3       8 UNK         0.0235 
     51 CB         27.9999   -0.8910  -12.1950 C.3       8 UNK        -0.2000 
     52 C          29.4062    1.1680  -11.6591 C.2       8 UNK         0.4941 
     53 O          30.4088    0.6060  -12.1057 O.2       8 UNK        -0.5273 
     54 N          29.4585    2.2179  -10.8230 N.am      9 UNK        -0.4262 
     55 CA         30.6321    2.8363  -10.1941 C.3       9 UNK         0.0264 
     56 CB         31.6249    3.4022  -11.2301 C.3       9 UNK        -0.1955 
     57 C          31.3173    1.9134   -9.1732 C.2       9 UNK         0.5031 
     58 O          31.3250    2.2382   -7.9853 O.2       9 UNK        -0.5390 
     59 N          31.8578    0.7827   -9.6485 N.am      10 UNK        -0.4204 
     60 CA         32.5194   -0.2820   -8.8863 C.3       10 UNK         0.0237 
     61 CB         31.4496   -1.1574   -8.1940 C.3       10 UNK        -0.1985 
     62 C          33.6086    0.2609   -7.9346 C.2       10 UNK         0.4970 
     63 O          34.5269    0.9407   -8.3966 O.2       10 UNK        -0.4914 
     64 N          33.4810   -0.0390   -6.6380 N.am      11 UNK        -0.4285 
     65 CA         34.3094    0.4786   -5.5402 C.3       11 UNK         0.1007 
     66 C          33.9276    1.9082   -5.0494 C.2       11 UNK         0.5703 
     67 N          32.9335    2.5815   -5.6160 N.am      11 UNK        -0.7361 
     68 O          34.5666    2.4333   -4.1404 O.2       11 UNK        -0.4986 
     69 C69        34.4084   -0.5459   -4.3736 C.3       12 UNK        -0.0947 
     70 S70        32.8004   -1.2494   -3.8553 S.3       12 UNK        -0.2240 
     71 C71        33.1410   -3.0222   -4.0648 C.3       12 UNK         0.0194 
     72 H72        22.2545   -2.5107   -1.3103 H         1 UNK         0.0906 
     73 H73        22.4107   -3.7964   -0.1139 H         1 UNK         0.0906 
     74 H74        22.6946   -4.1397   -1.8256 H         1 UNK         0.0906 
     75 H75        24.8899   -4.8607   -1.5444 H         1 UNK         0.3140 
     76 H76        26.8088   -3.3823   -0.0314 H         1 UNK         0.1085 
     77 H77        26.8270   -5.9216   -0.5545 H         1 UNK         0.0836 
     78 H78        27.4640   -5.5140   -2.1187 H         1 UNK         0.0836 
     79 H79        29.5670   -7.0164   -1.6378 H         1 UNK         0.0731 
     80 H80        30.9913   -6.3393   -0.8992 H         1 UNK         0.0731 
     81 H81        32.1358   -4.3426   -1.8844 H         1 UNK         0.1312 
     82 H82        31.3606   -3.5828   -6.0333 H         1 UNK         0.1406 
     83 H83        28.7929   -6.2039   -3.8309 H         1 UNK         0.1631 
     84 H84        28.8654   -6.1845   -6.3674 H         1 UNK         0.0717 
     85 H85        29.6824   -4.8875   -7.2014 H         1 UNK         0.0717 
     86 H86        28.7515   -2.1163   -5.6167 H         1 UNK         0.0934 
     87 H87        28.9888   -2.5185   -7.3048 H         1 UNK         0.0934 
     88 H88        26.5667   -1.9666   -7.7488 H         1 UNK         0.0739 
     89 H89        26.3467   -1.7585   -4.9414 H         1 UNK         0.3093 
     90 H90        23.1816   -0.0369   -4.9664 H         1 UNK         0.0818 
     91 H91        22.8781   -2.4964   -5.3194 H         1 UNK         0.0819 
     92 H92        24.1527   -2.8298   -4.1567 H         1 UNK         0.0819 
     93 H93        22.6645   -2.0328   -3.6428 H         1 UNK         0.0819 
     94 H94        25.2284   -0.9149   -3.0237 H         1 UNK         0.3041 
     95 H95        26.4272    2.3689   -2.4784 H         1 UNK         0.0784 
     96 H96        24.3856    2.4561   -1.0449 H         1 UNK         0.0793 
     97 H97        24.6316    0.7844   -0.5615 H         1 UNK         0.0793 
     98 H98        25.8002    2.0228   -0.0999 H         1 UNK         0.0793 
     99 H99        26.9095   -0.0852   -1.0979 H         1 UNK         0.3024 
    100 H100       29.2747   -1.4628   -3.3577 H         1 UNK         0.1171 
    101 H101       30.8205   -1.2465   -1.4309 H         1 UNK         0.0786 
    102 H102       30.6087    0.3143   -2.2056 H         1 UNK         0.0786 
    103 H103       29.7814   -0.0267   -0.6917 H         1 UNK         0.0786 
    104 H104       28.6707   -2.2944   -0.7676 H         1 UNK         0.2977 
    105 H105       27.2727    0.7943   -5.7271 H         1 UNK         0.3127 
    106 H106       28.8266    2.3924   -7.3404 H         1 UNK         0.0770 
    107 H107       26.4064    3.1664   -5.6297 H         1 UNK         0.0814 
    108 H108       27.6081    4.2994   -6.2345 H         1 UNK         0.0814 
    109 H109       28.0831    3.0590   -5.0908 H         1 UNK         0.0814 
    110 H110       25.5522    1.3599   -8.0902 H         1 UNK         0.2983 
    111 H111       24.8939    3.3023  -10.0801 H         1 UNK         0.0947 
    112 H112       24.0734    0.3571   -9.8136 H         1 UNK         0.0806 
    113 H113       23.2840    1.5472  -10.8408 H         1 UNK         0.0806 
    114 H114       23.2327    1.7289   -9.0943 H         1 UNK         0.0806 
    115 H115       27.1974    0.6631  -10.1040 H         1 UNK         0.3000 
    116 H116       27.7626    1.0829  -13.0138 H         1 UNK         0.0850 
    117 H117       28.6842   -1.2157  -12.9798 H         1 UNK         0.0810 
    118 H118       27.0082   -1.2571  -12.4608 H         1 UNK         0.0810 
    119 H119       28.3031   -1.3843  -11.2702 H         1 UNK         0.0810 
    120 H120       28.5756    2.5959  -10.4962 H         1 UNK         0.3040 
    121 H121       30.2435    3.6857   -9.6298 H         1 UNK         0.0766 
    122 H122       32.0697    2.6254  -11.8520 H         1 UNK         0.0812 
    123 H123       32.4439    3.9241  -10.7335 H         1 UNK         0.0812 
    124 H124       31.1380    4.1193  -11.8907 H         1 UNK         0.0812 
    125 H125       31.7288    0.6100  -10.6420 H         1 UNK         0.3205 
    126 H126       33.0377   -0.9061   -9.6155 H         1 UNK         0.0754 
    127 H127       31.8999   -2.0232   -7.7086 H         1 UNK         0.0769 
    128 H128       30.7329   -1.5395   -8.9217 H         1 UNK         0.0769 
    129 H129       30.8836   -0.5999   -7.4459 H         1 UNK         0.0769 
    130 H130       32.6797   -0.5772   -6.3445 H         1 UNK         0.2981 
    131 H131       35.3222    0.5937   -5.9307 H         1 UNK         0.0541 
    132 H132       32.4132    2.2128   -6.4073 H         1 UNK         0.3459 
    133 H133       32.7200    3.5047   -5.2760 H         1 UNK         0.3459 
    134 H134       34.8945   -0.1110   -3.4985 H         1 UNK         0.0612 
    135 H135       35.0670   -1.3583   -4.6831 H         1 UNK         0.0612 
    136 H136       33.8681   -3.3373   -3.3148 H         1 UNK         0.0624 
    137 H137       33.6091   -3.1893   -5.0364 H         1 UNK         0.0624 
@<TRIPOS>BOND
     1    1    2 1    
     2    1   72 1    
     3    1   73 1    
     4    1   74 1    
     5    2    3 2    
     6    2    4 am   BACKBONE|DICT|INTERRES
     7    4    5 1    
     8    4   75 1    
     9    5    6 1    
    10    5   35 1    
    11    5   76 1    
    12    6    7 1    
    13    6   77 1    
    14    6   78 1    
    15    7    8 1    
    16    8    9 1    
    17    8   79 1    
    18    8   80 1    
    19    9   10 ar   
    20    9   14 ar   
    21   10   11 ar   
    22   10   81 1    
    23   11   12 ar   
    24   11   71 1    
    25   12   13 ar   
    26   12   82 1    
    27   13   14 ar   
    28   13   15 1    
    29   14   83 1    
    30   15   16 1    
    31   15   84 1    
    32   15   85 1    
    33   16   17 1    
    34   17   18 1    
    35   17   86 1    
    36   17   87 1    
    37   18   19 1    
    38   18   37 1    
    39   18   88 1    
    40   19   20 am   BACKBONE|DICT|INTERRES
    41   19   89 1    
    42   20   21 2    
    43   20   22 1    
    44   22   23 1    
    45   22   24 1    
    46   22   90 1    
    47   23   91 1    
    48   23   92 1    
    49   23   93 1    
    50   24   25 am   BACKBONE|DICT|INTERRES
    51   24   94 1    
    52   25   26 2    
    53   25   27 1    
    54   27   28 1    
    55   27   29 1    
    56   27   95 1    
    57   28   96 1    
    58   28   97 1    
    59   28   98 1    
    60   29   30 am   BACKBONE|DICT|INTERRES
    61   29   99 1    
    62   30   31 2    
    63   30   32 1    
    64   32   33 1    
    65   32   34 1    
    66   32  100 1    
    67   33  101 1    
    68   33  102 1    
    69   33  103 1    
    70   34   35 am   BACKBONE|DICT|INTERRES
    71   34  104 1    
    72   35   36 2    
    73   37   38 2    
    74   37   39 am   BACKBONE|DICT|INTERRES
    75   39   40 1    
    76   39  105 1    
    77   40   41 1    
    78   40   42 1    
    79   40  106 1    
    80   41  107 1    
    81   41  108 1    
    82   41  109 1    
    83   42   43 2    
    84   42   44 am   BACKBONE|DICT|INTERRES
    85   44   45 1    
    86   44  110 1    
    87   45   46 1    
    88   45   47 1    
    89   45  111 1    
    90   46  112 1    
    91   46  113 1    
    92   46  114 1    
    93   47   48 2    
    94   47   49 am   BACKBONE|DICT|INTERRES
    95   49   50 1    
    96   49  115 1    
    97   50   51 1    
    98   50   52 1    
    99   50  116 1    
   100   51  117 1    
   101   51  118 1    
   102   51  119 1    
   103   52   53 2    
   104   52   54 am   BACKBONE|DICT|INTERRES
   105   54   55 1    
   106   54  120 1    
   107   55   56 1    
   108   55   57 1    
   109   55  121 1    
   110   56  122 1    
   111   56  123 1    
   112   56  124 1    
   113   57   58 2    
   114   57   59 am   BACKBONE|DICT|INTERRES
   115   59   60 1    
   116   59  125 1    
   117   60   61 1    
   118   60   62 1    
   119   60  126 1    
   120   61  127 1    
   121   61  128 1    
   122   61  129 1    
   123   62   63 2    
   124   62   64 am   BACKBONE|DICT|INTERRES
   125   64   65 1    
   126   64  130 1    
   127   65   66 1    
   128   65   69 1    
   129   65  131 1    
   130   66   67 am   BACKBONE|DICT|INTERRES
   131   66   68 2    
   132   67  132 1    
   133   67  133 1    
   134   69   70 1    
   135   69  134 1    
   136   69  135 1    
   137   70   71 1    
   138   71  136 1    
   139   71  137 1    
@<TRIPOS>SUBSTRUCTURE
     1 UNK         1 GROUP             0       ****    0 ROOT    
