@<TRIPOS>MOLECULE
3R137
137   139    1
SMALL
USER_CHARGES


@<TRIPOS>ATOM
      1 CA         25.3588   -5.8255   -5.6454 C.3       0 UNK        -0.2020 
      2 C          25.8244   -5.0338   -4.4332 C.2       0 UNK         0.4855 
      3 O          26.1445   -3.8549   -4.5767 O.2       0 UNK        -0.5197 
      4 N          25.8475   -5.6770   -3.2554 N.am      1 UNK        -0.4892 
      5 CA         26.2545   -5.1613   -1.9378 C.3       1 UNK         0.0835 
      6 C6         27.7633   -5.3970   -1.6202 C.3       12 UNK        -0.0855 
      7 S7         28.9831   -4.4918   -2.6440 S.3       12 UNK        -0.2931 
      8 C8         30.2748   -4.1518   -1.4062 C.3       12 UNK         0.0378 
      9 C9         31.2437   -3.0862   -1.8930 C.ar      12 UNK        -0.0802 
     10 C10        32.4259   -3.4419   -2.5499 C.ar      12 UNK        -0.0944 
     11 C11        33.3216   -2.4580   -2.9836 C.ar      12 UNK        -0.0787 
     12 C12        33.0264   -1.1106   -2.7512 C.ar      12 UNK        -0.0862 
     13 C13        31.8423   -0.7430   -2.1046 C.ar      12 UNK        -0.0733 
     14 C14        30.9606   -1.7363   -1.6693 C.ar      12 UNK        -0.0832 
     15 C15        31.5143    0.7255   -1.8687 C.3       12 UNK         0.0240 
     16 S16        30.9325    1.5607   -3.3806 S.3       12 UNK        -0.2522 
     17 C17        29.3839    0.6665   -3.7421 C.3       12 UNK        -0.0967 
     18 CA         28.8870    0.8851   -5.1933 C.3       5 UNK         0.0660 
     19 N          27.9436   -0.1528   -5.6112 N.am      5 UNK        -0.4015 
     20 C          27.6421   -0.4437   -6.8844 C.2       4 UNK         0.4946 
     21 O          28.2423    0.0215   -7.8539 O.2       4 UNK        -0.5353 
     22 CA         26.4649   -1.4001   -7.1356 C.3       4 UNK         0.0277 
     23 CB         26.9657   -2.7921   -7.5439 C.3       4 UNK        -0.1981 
     24 N          25.5669   -1.5169   -5.9846 N.am      4 UNK        -0.4209 
     25 C          24.6793   -0.5766   -5.6335 C.2       3 UNK         0.4942 
     26 O          24.5346    0.4825   -6.2432 O.2       3 UNK        -0.5208 
     27 CA         23.8497   -0.8362   -4.3659 C.3       3 UNK         0.0250 
     28 CB         22.7315   -1.8520   -4.6485 C.3       3 UNK        -0.1990 
     29 N          24.6443   -1.2927   -3.2227 N.am      3 UNK        -0.4232 
     30 C          25.6797   -0.6455   -2.6750 C.2       2 UNK         0.4993 
     31 O          26.1163    0.4209   -3.1079 O.2       2 UNK        -0.5286 
     32 CA         26.3731   -1.2948   -1.4629 C.3       2 UNK         0.0209 
     33 CB         25.6460   -0.9432   -0.1511 C.3       2 UNK        -0.1931 
     34 N          26.5967   -2.7423   -1.5951 N.am      2 UNK        -0.4546 
     35 C          25.7080   -3.7442   -1.6405 C.2       1 UNK         0.5154 
     36 O          24.4919   -3.5879   -1.5085 O.2       1 UNK        -0.5181 
     37 C          28.2504    2.2729   -5.3925 C.2       5 UNK         0.5014 
     38 O          28.8497    3.1262   -6.0467 O.2       5 UNK        -0.5248 
     39 N          27.0231    2.4509   -4.8788 N.am      6 UNK        -0.4434 
     40 CA         26.2161    3.6670   -5.0173 C.3       6 UNK         0.0363 
     41 CB         24.9276    3.5213   -4.1922 C.3       6 UNK        -0.1936 
     42 C          25.8903    4.0188   -6.4797 C.2       6 UNK         0.5081 
     43 O          25.9502    5.1921   -6.8479 O.2       6 UNK        -0.5248 
     44 N          25.5866    2.9983   -7.2932 N.am      7 UNK        -0.4718 
     45 CA         25.3620    3.1242   -8.7366 C.3       7 UNK         0.0273 
     46 CB         24.5992    1.8838   -9.2308 C.3       7 UNK        -0.1935 
     47 C          26.6537    3.3108   -9.5570 C.2       7 UNK         0.5018 
     48 O          26.5555    3.6417  -10.7393 O.2       7 UNK        -0.5186 
     49 N          27.8232    3.0701   -8.9411 N.am      8 UNK        -0.4240 
     50 CA         29.1655    3.0607   -9.5403 C.3       8 UNK         0.0235 
     51 CB         29.5860    4.4820   -9.9707 C.3       8 UNK        -0.2000 
     52 C          29.3152    2.0165  -10.6671 C.2       8 UNK         0.4941 
     53 O          30.0053    2.2662  -11.6576 O.2       8 UNK        -0.5273 
     54 N          28.6537    0.8665  -10.4916 N.am      9 UNK        -0.4262 
     55 CA         28.6822   -0.2771  -11.4016 C.3       9 UNK         0.0264 
     56 CB         27.2962   -0.9432  -11.4098 C.3       9 UNK        -0.1955 
     57 C          29.7661   -1.2897  -11.0002 C.2       9 UNK         0.5031 
     58 O          30.3370   -1.9363  -11.8801 O.2       9 UNK        -0.5390 
     59 N          30.0297   -1.4069   -9.6924 N.am      10 UNK        -0.4204 
     60 CA         31.0892   -2.2321   -9.1119 C.3       10 UNK         0.0237 
     61 CB         30.4923   -3.0691   -7.9611 C.3       10 UNK        -0.1985 
     62 C          32.2551   -1.3427   -8.6450 C.2       10 UNK         0.4970 
     63 O          32.3491   -0.1787   -9.0412 O.2       10 UNK        -0.4914 
     64 N          33.1188   -1.9107   -7.7962 N.am      11 UNK        -0.4285 
     65 CA         34.2343   -1.2410   -7.1080 C.3       11 UNK         0.1007 
     66 C          33.8370   -0.0987   -6.1266 C.2       11 UNK         0.5703 
     67 N          32.5634    0.0855   -5.8085 N.am      11 UNK        -0.7361 
     68 O          34.7025    0.6322   -5.6511 O.2       11 UNK        -0.4986 
     69 C69        35.1734   -2.2778   -6.4317 C.3       12 UNK        -0.0947 
     70 S70        34.3083   -3.4876   -5.3634 S.3       12 UNK        -0.2240 
     71 C71        34.6156   -2.8568   -3.6812 C.3       12 UNK         0.0194 
     72 H72        24.5037   -5.3329   -6.1075 H         1 UNK         0.0906 
     73 H73        26.1590   -5.8811   -6.3830 H         1 UNK         0.0906 
     74 H74        25.0655   -6.8421   -5.3845 H         1 UNK         0.0906 
     75 H75        25.5344   -6.6378   -3.2410 H         1 UNK         0.3140 
     76 H76        25.7123   -5.7919   -1.2306 H         1 UNK         0.1085 
     77 H77        27.9851   -6.4602   -1.7250 H         1 UNK         0.0836 
     78 H78        27.9406   -5.1776   -0.5659 H         1 UNK         0.0836 
     79 H79        30.8075   -5.0763   -1.1780 H         1 UNK         0.0731 
     80 H80        29.8191   -3.8216   -0.4714 H         1 UNK         0.0731 
     81 H81        32.6501   -4.4852   -2.7265 H         1 UNK         0.1312 
     82 H82        33.7122   -0.3430   -3.0832 H         1 UNK         0.1406 
     83 H83        30.0473   -1.4585   -1.1613 H         1 UNK         0.1631 
     84 H84        32.4049    1.2397   -1.5046 H         1 UNK         0.0717 
     85 H85        30.7602    0.8345   -1.0876 H         1 UNK         0.0717 
     86 H86        29.5645   -0.3979   -3.5944 H         1 UNK         0.0934 
     87 H87        28.6345    0.9522   -3.0031 H         1 UNK         0.0934 
     88 H88        29.7504    0.8218   -5.8593 H         1 UNK         0.0739 
     89 H89        27.3737   -0.5623   -4.8851 H         1 UNK         0.3093 
     90 H90        25.8921   -0.9973   -7.9727 H         1 UNK         0.0818 
     91 H91        27.5389   -2.7407   -8.4693 H         1 UNK         0.0819 
     92 H92        27.6070   -3.2323   -6.7793 H         1 UNK         0.0819 
     93 H93        26.1356   -3.4763   -7.7192 H         1 UNK         0.0819 
     94 H94        25.6666   -2.3559   -5.4105 H         1 UNK         0.3041 
     95 H95        23.3871    0.1108   -4.0803 H         1 UNK         0.0784 
     96 H96        22.1178   -1.5341   -5.4926 H         1 UNK         0.0793 
     97 H97        23.1328   -2.8380   -4.8875 H         1 UNK         0.0793 
     98 H98        22.0688   -1.9604   -3.7896 H         1 UNK         0.0793 
     99 H99        24.3768   -2.1738   -2.7924 H         1 UNK         0.3024 
    100 H100       27.3678   -0.8495   -1.4088 H         1 UNK         0.1171 
    101 H101       26.1731   -1.3455    0.7141 H         1 UNK         0.0786 
    102 H102       25.5862    0.1381   -0.0199 H         1 UNK         0.0786 
    103 H103       24.6255   -1.3263   -0.1305 H         1 UNK         0.0786 
    104 H104       27.5493   -3.0112   -1.8150 H         1 UNK         0.2977 
    105 H105       26.6142    1.6995   -4.3244 H         1 UNK         0.3127 
    106 H106       26.7968    4.4931   -4.6017 H         1 UNK         0.0770 
    107 H107       24.3164    2.6886   -4.5423 H         1 UNK         0.0814 
    108 H108       24.3186    4.4240   -4.2556 H         1 UNK         0.0814 
    109 H109       25.1489    3.3515   -3.1383 H         1 UNK         0.0814 
    110 H110       25.4619    2.0730   -6.8893 H         1 UNK         0.2983 
    111 H111       24.7368    4.0023   -8.9128 H         1 UNK         0.0947 
    112 H112       24.3521    1.9710  -10.2897 H         1 UNK         0.0806 
    113 H113       23.6620    1.7509   -8.6898 H         1 UNK         0.0806 
    114 H114       25.1887    0.9752   -9.1085 H         1 UNK         0.0806 
    115 H115       27.7961    2.8376   -7.9556 H         1 UNK         0.3000 
    116 H116       29.8448    2.7425   -8.7476 H         1 UNK         0.0850 
    117 H117       30.6290    4.5013  -10.2888 H         1 UNK         0.0810 
    118 H118       29.4861    5.1896   -9.1476 H         1 UNK         0.0810 
    119 H119       28.9852    4.8477  -10.8039 H         1 UNK         0.0810 
    120 H120       28.1925    0.7240   -9.5967 H         1 UNK         0.3040 
    121 H121       28.9011    0.0657  -12.4152 H         1 UNK         0.0766 
    122 H122       26.5278   -0.2494  -11.7516 H         1 UNK         0.0812 
    123 H123       27.0094   -1.2966  -10.4192 H         1 UNK         0.0812 
    124 H124       27.2800   -1.8023  -12.0818 H         1 UNK         0.0812 
    125 H125       29.5296   -0.8023   -9.0464 H         1 UNK         0.3205 
    126 H126       31.4902   -2.9184   -9.8604 H         1 UNK         0.0754 
    127 H127       31.2237   -3.7515   -7.5274 H         1 UNK         0.0769 
    128 H128       29.6745   -3.6927   -8.3203 H         1 UNK         0.0769 
    129 H129       30.1095   -2.4401   -7.1562 H         1 UNK         0.0769 
    130 H130       32.9616   -2.8660   -7.5109 H         1 UNK         0.2981 
    131 H131       34.8168   -0.7466   -7.8875 H         1 UNK         0.0541 
    132 H132       31.8577   -0.5235   -6.1833 H         1 UNK         0.3459 
    133 H133       32.3137    0.8120   -5.1548 H         1 UNK         0.3459 
    134 H134       35.9783   -1.7888   -5.8804 H         1 UNK         0.0612 
    135 H135       35.6764   -2.8526   -7.2107 H         1 UNK         0.0612 
    136 H136       35.1084   -3.6382   -3.1012 H         1 UNK         0.0624 
    137 H137       35.3107   -2.0167   -3.7071 H         1 UNK         0.0624 
@<TRIPOS>BOND
     1    1    2 1    
     2    1   72 1    
     3    1   73 1    
     4    1   74 1    
     5    2    3 2    
     6    2    4 am   BACKBONE|DICT|INTERRES
     7    4    5 1    
     8    4   75 1    
     9    5    6 1    
    10    5   35 1    
    11    5   76 1    
    12    6    7 1    
    13    6   77 1    
    14    6   78 1    
    15    7    8 1    
    16    8    9 1    
    17    8   79 1    
    18    8   80 1    
    19    9   10 ar   
    20    9   14 ar   
    21   10   11 ar   
    22   10   81 1    
    23   11   12 ar   
    24   11   71 1    
    25   12   13 ar   
    26   12   82 1    
    27   13   14 ar   
    28   13   15 1    
    29   14   83 1    
    30   15   16 1    
    31   15   84 1    
    32   15   85 1    
    33   16   17 1    
    34   17   18 1    
    35   17   86 1    
    36   17   87 1    
    37   18   19 1    
    38   18   37 1    
    39   18   88 1    
    40   19   20 am   BACKBONE|DICT|INTERRES
    41   19   89 1    
    42   20   21 2    
    43   20   22 1    
    44   22   23 1    
    45   22   24 1    
    46   22   90 1    
    47   23   91 1    
    48   23   92 1    
    49   23   93 1    
    50   24   25 am   BACKBONE|DICT|INTERRES
    51   24   94 1    
    52   25   26 2    
    53   25   27 1    
    54   27   28 1    
    55   27   29 1    
    56   27   95 1    
    57   28   96 1    
    58   28   97 1    
    59   28   98 1    
    60   29   30 am   BACKBONE|DICT|INTERRES
    61   29   99 1    
    62   30   31 2    
    63   30   32 1    
    64   32   33 1    
    65   32   34 1    
    66   32  100 1    
    67   33  101 1    
    68   33  102 1    
    69   33  103 1    
    70   34   35 am   BACKBONE|DICT|INTERRES
    71   34  104 1    
    72   35   36 2    
    73   37   38 2    
    74   37   39 am   BACKBONE|DICT|INTERRES
    75   39   40 1    
    76   39  105 1    
    77   40   41 1    
    78   40   42 1    
    79   40  106 1    
    80   41  107 1    
    81   41  108 1    
    82   41  109 1    
    83   42   43 2    
    84   42   44 am   BACKBONE|DICT|INTERRES
    85   44   45 1    
    86   44  110 1    
    87   45   46 1    
    88   45   47 1    
    89   45  111 1    
    90   46  112 1    
    91   46  113 1    
    92   46  114 1    
    93   47   48 2    
    94   47   49 am   BACKBONE|DICT|INTERRES
    95   49   50 1    
    96   49  115 1    
    97   50   51 1    
    98   50   52 1    
    99   50  116 1    
   100   51  117 1    
   101   51  118 1    
   102   51  119 1    
   103   52   53 2    
   104   52   54 am   BACKBONE|DICT|INTERRES
   105   54   55 1    
   106   54  120 1    
   107   55   56 1    
   108   55   57 1    
   109   55  121 1    
   110   56  122 1    
   111   56  123 1    
   112   56  124 1    
   113   57   58 2    
   114   57   59 am   BACKBONE|DICT|INTERRES
   115   59   60 1    
   116   59  125 1    
   117   60   61 1    
   118   60   62 1    
   119   60  126 1    
   120   61  127 1    
   121   61  128 1    
   122   61  129 1    
   123   62   63 2    
   124   62   64 am   BACKBONE|DICT|INTERRES
   125   64   65 1    
   126   64  130 1    
   127   65   66 1    
   128   65   69 1    
   129   65  131 1    
   130   66   67 am   BACKBONE|DICT|INTERRES
   131   66   68 2    
   132   67  132 1    
   133   67  133 1    
   134   69   70 1    
   135   69  134 1    
   136   69  135 1    
   137   70   71 1    
   138   71  136 1    
   139   71  137 1    
@<TRIPOS>SUBSTRUCTURE
     1 UNK         1 GROUP             0       ****    0 ROOT    
