@<TRIPOS>MOLECULE
3R137
137   139    1
SMALL
USER_CHARGES


@<TRIPOS>ATOM
      1 CA         24.8521   -2.8828   -9.6157 C.3       0 UNK        -0.2020 
      2 C          25.4227   -3.9837   -8.7338 C.2       0 UNK         0.4855 
      3 O          24.9359   -5.1145   -8.7688 O.2       0 UNK        -0.5197 
      4 N          26.4581   -3.6609   -7.9513 N.am      1 UNK        -0.4892 
      5 CA         27.0787   -4.5451   -6.9621 C.3       1 UNK         0.0835 
      6 C6         28.5393   -4.1154   -6.6722 C.3       12 UNK        -0.0855 
      7 S7         28.7383   -2.3640   -6.1802 S.3       12 UNK        -0.2931 
      8 C8         29.1093   -2.5424   -4.4041 C.3       12 UNK         0.0378 
      9 C9         29.6487   -1.2588   -3.7867 C.ar      12 UNK        -0.0802 
     10 C10        30.7167   -0.5797   -4.3800 C.ar      12 UNK        -0.0944 
     11 C11        31.2192    0.5948   -3.8168 C.ar      12 UNK        -0.0787 
     12 C12        30.6565    1.0886   -2.6373 C.ar      12 UNK        -0.0862 
     13 C13        29.5954    0.4138   -2.0242 C.ar      12 UNK        -0.0733 
     14 C14        29.1002   -0.7622   -2.6006 C.ar      12 UNK        -0.0832 
     15 C15        28.9834    0.9572   -0.7400 C.3       12 UNK         0.0240 
     16 S16        27.2069    1.3177   -0.9173 S.3       12 UNK        -0.2522 
     17 C17        27.2013    2.6927   -2.1209 C.3       12 UNK        -0.0967 
     18 CA         27.0665    2.2330   -3.5966 C.3       5 UNK         0.0660 
     19 N          25.9849    1.2581   -3.7894 N.am      5 UNK        -0.4015 
     20 C          25.7456    0.5753   -4.9150 C.2       4 UNK         0.4946 
     21 O          26.4073    0.7199   -5.9451 O.2       4 UNK        -0.5353 
     22 CA         24.5466   -0.3911   -4.8884 C.3       4 UNK         0.0277 
     23 CB         24.2350   -0.9690   -6.2807 C.3       4 UNK        -0.1981 
     24 N          24.7425   -1.4857   -3.9311 N.am      4 UNK        -0.4209 
     25 C          24.6068   -1.3656   -2.6003 C.2       3 UNK         0.4942 
     26 O          24.2929   -0.3024   -2.0614 O.2       3 UNK        -0.5208 
     27 CA         24.8479   -2.6010   -1.7116 C.3       3 UNK         0.0250 
     28 CB         23.7233   -2.7694   -0.6731 C.3       3 UNK        -0.1990 
     29 N          24.9562   -3.8376   -2.4864 N.am      3 UNK        -0.4232 
     30 C          26.0470   -4.6083   -2.5763 C.2       2 UNK         0.4993 
     31 O          27.1071   -4.3753   -1.9947 O.2       2 UNK        -0.5286 
     32 CA         25.9540   -5.8467   -3.4900 C.3       2 UNK         0.0209 
     33 CB         24.5189   -6.4019   -3.6443 C.3       2 UNK        -0.1931 
     34 N          26.5632   -5.6036   -4.8051 N.am      2 UNK        -0.4546 
     35 C          26.2324   -4.6353   -5.6734 C.2       1 UNK         0.5154 
     36 O          25.3228   -3.8272   -5.4713 O.2       1 UNK        -0.5181 
     37 C          26.9572    3.4548   -4.5365 C.2       5 UNK         0.5014 
     38 O          27.9737    4.0860   -4.8237 O.2       5 UNK        -0.5248 
     39 N          25.7382    3.7572   -5.0098 N.am      6 UNK        -0.4434 
     40 CA         25.4634    4.7713   -6.0294 C.3       6 UNK         0.0363 
     41 CB         23.9646    5.1123   -6.0139 C.3       6 UNK        -0.1936 
     42 C          25.9010    4.3403   -7.4425 C.2       6 UNK         0.5081 
     43 O          26.2454    5.2057   -8.2479 O.2       6 UNK        -0.5248 
     44 N          25.8822    3.0285   -7.7254 N.am      7 UNK        -0.4718 
     45 CA         26.3994    2.4500   -8.9691 C.3       7 UNK         0.0273 
     46 CB         25.7000    1.1119   -9.2627 C.3       7 UNK        -0.1935 
     47 C          27.9215    2.2648   -8.8887 C.2       7 UNK         0.5018 
     48 O          28.6135    2.5395   -9.8691 O.2       7 UNK        -0.5186 
     49 N          28.4032    1.8287   -7.7128 N.am      8 UNK        -0.4240 
     50 CA         29.8114    1.7147   -7.3102 C.3       8 UNK         0.0235 
     51 CB         30.4760    3.1110   -7.2917 C.3       8 UNK        -0.2000 
     52 C          30.6285    0.6903   -8.1258 C.2       8 UNK         0.4941 
     53 O          31.8550    0.7937   -8.1769 O.2       8 UNK        -0.5273 
     54 N          29.9426   -0.2836   -8.7402 N.am      9 UNK        -0.4262 
     55 CA         30.4794   -1.2269   -9.7267 C.3       9 UNK         0.0264 
     56 CB         29.3350   -2.1128  -10.2473 C.3       9 UNK        -0.1955 
     57 C          31.6604   -2.0930   -9.2510 C.2       9 UNK         0.5031 
     58 O          32.5092   -2.4432  -10.0724 O.2       9 UNK        -0.5390 
     59 N          31.6973   -2.4324   -7.9554 N.am      10 UNK        -0.4204 
     60 CA         32.7619   -3.2439   -7.3576 C.3       10 UNK         0.0237 
     61 CB         32.2553   -3.8904   -6.0584 C.3       10 UNK        -0.1985 
     62 C          34.0673   -2.4739   -7.0874 C.2       10 UNK         0.4970 
     63 O          35.1087   -3.1205   -6.9610 O.2       10 UNK        -0.4914 
     64 N          34.0057   -1.1408   -6.9668 N.am      11 UNK        -0.4285 
     65 CA         35.1726   -0.3000   -6.6532 C.3       11 UNK         0.1007 
     66 C          35.9947    0.0593   -7.9205 C.2       11 UNK         0.5703 
     67 N          37.2598    0.4212   -7.7518 N.am      11 UNK        -0.7361 
     68 O          35.5024    0.0392   -9.0473 O.2       11 UNK        -0.4986 
     69 C69        34.7858    0.9674   -5.8461 C.3       12 UNK        -0.0947 
     70 S70        33.9562    0.5605   -4.2678 S.3       12 UNK        -0.2240 
     71 C71        32.3373    1.3435   -4.5211 C.3       12 UNK         0.0194 
     72 H72        25.4631   -1.9811   -9.5876 H         1 UNK         0.0906 
     73 H73        24.7965   -3.2198  -10.6504 H         1 UNK         0.0906 
     74 H74        23.8466   -2.6229   -9.2859 H         1 UNK         0.0906 
     75 H75        26.7873   -2.7071   -7.9182 H         1 UNK         0.3140 
     76 H76        27.1076   -5.5520   -7.3854 H         1 UNK         0.1085 
     77 H77        29.1353   -4.2669   -7.5733 H         1 UNK         0.0836 
     78 H78        28.9937   -4.7688   -5.9259 H         1 UNK         0.0836 
     79 H79        29.8416   -3.3349   -4.2494 H         1 UNK         0.0731 
     80 H80        28.1968   -2.8566   -3.8977 H         1 UNK         0.0731 
     81 H81        31.1540   -0.9558   -5.2930 H         1 UNK         0.1312 
     82 H82        31.0401    2.0016   -2.2025 H         1 UNK         0.1406 
     83 H83        28.2801   -1.2843   -2.1259 H         1 UNK         0.1631 
     84 H84        29.4995    1.8588   -0.4065 H         1 UNK         0.0717 
     85 H85        29.1138    0.2181    0.0515 H         1 UNK         0.0717 
     86 H86        26.3726    3.3511   -1.8526 H         1 UNK         0.0934 
     87 H87        28.1091    3.2849   -1.9887 H         1 UNK         0.0934 
     88 H88        27.9897    1.7229   -3.8769 H         1 UNK         0.0739 
     89 H89        25.4261    1.0296   -2.9714 H         1 UNK         0.3093 
     90 H90        23.6729    0.1858   -4.5775 H         1 UNK         0.0818 
     91 H91        25.0968   -1.4872   -6.7000 H         1 UNK         0.0819 
     92 H92        23.4049   -1.6746   -6.2453 H         1 UNK         0.0819 
     93 H93        23.9598   -0.1777   -6.9786 H         1 UNK         0.0819 
     94 H94        25.0175   -2.3801   -4.3334 H         1 UNK         0.3041 
     95 H95        25.7779   -2.4094   -1.1724 H         1 UNK         0.0784 
     96 H96        23.6458   -1.8924   -0.0290 H         1 UNK         0.0793 
     97 H97        22.7527   -2.9124   -1.1495 H         1 UNK         0.0793 
     98 H98        23.9086   -3.6264   -0.0253 H         1 UNK         0.0793 
     99 H99        24.1532   -4.0890   -3.0466 H         1 UNK         0.3024 
    100 H100       26.5510   -6.6213   -3.0050 H         1 UNK         0.1171 
    101 H101       24.5279   -7.3578   -4.1683 H         1 UNK         0.0786 
    102 H102       24.0586   -6.5773   -2.6708 H         1 UNK         0.0786 
    103 H103       23.8655   -5.7320   -4.2038 H         1 UNK         0.0786 
    104 H104       27.3391   -6.2088   -5.0360 H         1 UNK         0.2977 
    105 H105       24.9547    3.2040   -4.6955 H         1 UNK         0.3127 
    106 H106       26.0214    5.6747   -5.7728 H         1 UNK         0.0770 
    107 H107       23.3487    4.2451   -6.2556 H         1 UNK         0.0814 
    108 H108       23.7349    5.8881   -6.7457 H         1 UNK         0.0814 
    109 H109       23.6521    5.4871   -5.0391 H         1 UNK         0.0814 
    110 H110       25.6539    2.3715   -6.9896 H         1 UNK         0.2983 
    111 H111       26.1853    3.1307   -9.7965 H         1 UNK         0.0947 
    112 H112       26.0280    0.7070  -10.2210 H         1 UNK         0.0806 
    113 H113       24.6181    1.2327   -9.3159 H         1 UNK         0.0806 
    114 H114       25.9172    0.3608   -8.5037 H         1 UNK         0.0806 
    115 H115       27.7236    1.5517   -7.0062 H         1 UNK         0.3000 
    116 H116       29.7886    1.3419   -6.2865 H         1 UNK         0.0850 
    117 H117       31.4895    3.0759   -6.8943 H         1 UNK         0.0810 
    118 H118       29.9134    3.8081   -6.6715 H         1 UNK         0.0810 
    119 H119       30.5461    3.5376   -8.2924 H         1 UNK         0.0810 
    120 H120       28.9433   -0.2994   -8.6006 H         1 UNK         0.3040 
    121 H121       30.8471   -0.6278  -10.5623 H         1 UNK         0.0766 
    122 H122       29.6946   -2.8114  -11.0042 H         1 UNK         0.0812 
    123 H123       28.5482   -1.5162  -10.7094 H         1 UNK         0.0812 
    124 H124       28.8848   -2.7025   -9.4490 H         1 UNK         0.0812 
    125 H125       30.9387   -2.1341   -7.3571 H         1 UNK         0.3205 
    126 H126       33.0052   -4.0511   -8.0521 H         1 UNK         0.0754 
    127 H127       32.0063   -3.1451   -5.3041 H         1 UNK         0.0769 
    128 H128       33.0165   -4.5414   -5.6262 H         1 UNK         0.0769 
    129 H129       31.3761   -4.5071   -6.2371 H         1 UNK         0.0769 
    130 H130       33.1511   -0.6496   -7.1974 H         1 UNK         0.2981 
    131 H131       35.8383   -0.8821   -6.0123 H         1 UNK         0.0541 
    132 H132       37.6775    0.4487   -6.8346 H         1 UNK         0.3459 
    133 H133       37.8098    0.6678   -8.5598 H         1 UNK         0.3459 
    134 H134       34.1621    1.6279   -6.4509 H         1 UNK         0.0612 
    135 H135       35.6776    1.5456   -5.5984 H         1 UNK         0.0612 
    136 H136       32.1148    1.3552   -5.5839 H         1 UNK         0.0624 
    137 H137       32.3810    2.3851   -4.1996 H         1 UNK         0.0624 
@<TRIPOS>BOND
     1    1    2 1    
     2    1   72 1    
     3    1   73 1    
     4    1   74 1    
     5    2    3 2    
     6    2    4 am   BACKBONE|DICT|INTERRES
     7    4    5 1    
     8    4   75 1    
     9    5    6 1    
    10    5   35 1    
    11    5   76 1    
    12    6    7 1    
    13    6   77 1    
    14    6   78 1    
    15    7    8 1    
    16    8    9 1    
    17    8   79 1    
    18    8   80 1    
    19    9   10 ar   
    20    9   14 ar   
    21   10   11 ar   
    22   10   81 1    
    23   11   12 ar   
    24   11   71 1    
    25   12   13 ar   
    26   12   82 1    
    27   13   14 ar   
    28   13   15 1    
    29   14   83 1    
    30   15   16 1    
    31   15   84 1    
    32   15   85 1    
    33   16   17 1    
    34   17   18 1    
    35   17   86 1    
    36   17   87 1    
    37   18   19 1    
    38   18   37 1    
    39   18   88 1    
    40   19   20 am   BACKBONE|DICT|INTERRES
    41   19   89 1    
    42   20   21 2    
    43   20   22 1    
    44   22   23 1    
    45   22   24 1    
    46   22   90 1    
    47   23   91 1    
    48   23   92 1    
    49   23   93 1    
    50   24   25 am   BACKBONE|DICT|INTERRES
    51   24   94 1    
    52   25   26 2    
    53   25   27 1    
    54   27   28 1    
    55   27   29 1    
    56   27   95 1    
    57   28   96 1    
    58   28   97 1    
    59   28   98 1    
    60   29   30 am   BACKBONE|DICT|INTERRES
    61   29   99 1    
    62   30   31 2    
    63   30   32 1    
    64   32   33 1    
    65   32   34 1    
    66   32  100 1    
    67   33  101 1    
    68   33  102 1    
    69   33  103 1    
    70   34   35 am   BACKBONE|DICT|INTERRES
    71   34  104 1    
    72   35   36 2    
    73   37   38 2    
    74   37   39 am   BACKBONE|DICT|INTERRES
    75   39   40 1    
    76   39  105 1    
    77   40   41 1    
    78   40   42 1    
    79   40  106 1    
    80   41  107 1    
    81   41  108 1    
    82   41  109 1    
    83   42   43 2    
    84   42   44 am   BACKBONE|DICT|INTERRES
    85   44   45 1    
    86   44  110 1    
    87   45   46 1    
    88   45   47 1    
    89   45  111 1    
    90   46  112 1    
    91   46  113 1    
    92   46  114 1    
    93   47   48 2    
    94   47   49 am   BACKBONE|DICT|INTERRES
    95   49   50 1    
    96   49  115 1    
    97   50   51 1    
    98   50   52 1    
    99   50  116 1    
   100   51  117 1    
   101   51  118 1    
   102   51  119 1    
   103   52   53 2    
   104   52   54 am   BACKBONE|DICT|INTERRES
   105   54   55 1    
   106   54  120 1    
   107   55   56 1    
   108   55   57 1    
   109   55  121 1    
   110   56  122 1    
   111   56  123 1    
   112   56  124 1    
   113   57   58 2    
   114   57   59 am   BACKBONE|DICT|INTERRES
   115   59   60 1    
   116   59  125 1    
   117   60   61 1    
   118   60   62 1    
   119   60  126 1    
   120   61  127 1    
   121   61  128 1    
   122   61  129 1    
   123   62   63 2    
   124   62   64 am   BACKBONE|DICT|INTERRES
   125   64   65 1    
   126   64  130 1    
   127   65   66 1    
   128   65   69 1    
   129   65  131 1    
   130   66   67 am   BACKBONE|DICT|INTERRES
   131   66   68 2    
   132   67  132 1    
   133   67  133 1    
   134   69   70 1    
   135   69  134 1    
   136   69  135 1    
   137   70   71 1    
   138   71  136 1    
   139   71  137 1    
@<TRIPOS>SUBSTRUCTURE
     1 UNK         1 GROUP             0       ****    0 ROOT    
