@<TRIPOS>MOLECULE
3R137
137   139    1
SMALL
USER_CHARGES


@<TRIPOS>ATOM
      1 CA         23.5557   -0.7741    0.1101 C.3       0 UNK        -0.2020 
      2 C          25.0314   -0.5951   -0.2112 C.2       0 UNK         0.4855 
      3 O          25.4518    0.5046   -0.5723 O.2       0 UNK        -0.5197 
      4 N          25.8277   -1.6652   -0.0885 N.am      1 UNK        -0.4892 
      5 CA         27.2460   -1.6784   -0.4594 C.3       1 UNK         0.0835 
      6 C6         27.9716   -2.9216    0.1123 C.3       12 UNK        -0.0855 
      7 S7         29.7770   -2.6772    0.2608 S.3       12 UNK        -0.2931 
      8 C8         30.4534   -4.1294   -0.6103 C.3       12 UNK         0.0378 
      9 C9         30.3657   -3.9742   -2.1210 C.ar      12 UNK        -0.0802 
     10 C10        31.3827   -3.3196   -2.8242 C.ar      12 UNK        -0.0944 
     11 C11        31.2940   -3.1463   -4.2094 C.ar      12 UNK        -0.0787 
     12 C12        30.1616   -3.6208   -4.8810 C.ar      12 UNK        -0.0862 
     13 C13        29.1429   -4.2895   -4.1932 C.ar      12 UNK        -0.0733 
     14 C14        29.2618   -4.4759   -2.8149 C.ar      12 UNK        -0.0832 
     15 C15        27.8693   -4.7361   -4.9010 C.3       12 UNK         0.0240 
     16 S16        28.1669   -5.4644   -6.5441 S.3       12 UNK        -0.2522 
     17 C17        26.4696   -5.6200   -7.2135 C.3       12 UNK        -0.0967 
     18 CA         25.7835   -4.3055   -7.6882 C.3       5 UNK         0.0660 
     19 N          25.1731   -3.5792   -6.5660 N.am      5 UNK        -0.4015 
     20 C          24.4278   -2.4677   -6.6352 C.2       4 UNK         0.4946 
     21 O          24.2764   -1.8103   -7.6649 O.2       4 UNK        -0.5353 
     22 CA         23.7179   -2.0237   -5.3414 C.3       4 UNK         0.0277 
     23 CB         23.5750   -3.1417   -4.2871 C.3       4 UNK        -0.1981 
     24 N          24.4231   -0.8955   -4.7419 N.am      4 UNK        -0.4209 
     25 C          24.2737    0.3880   -5.1022 C.2       3 UNK         0.4942 
     26 O          23.4415    0.7832   -5.9189 O.2       3 UNK        -0.5208 
     27 CA         25.2079    1.4187   -4.4400 C.3       3 UNK         0.0250 
     28 CB         24.4606    2.2001   -3.3485 C.3       3 UNK        -0.1990 
     29 N          26.4313    0.8345   -3.8794 N.am      3 UNK        -0.4232 
     30 C          27.3924    0.2437   -4.6063 C.2       2 UNK         0.4993 
     31 O          27.3733    0.1914   -5.8356 O.2       2 UNK        -0.5286 
     32 CA         28.5615   -0.4201   -3.8601 C.3       2 UNK         0.0209 
     33 CB         29.8333    0.4270   -3.9991 C.3       2 UNK        -0.1931 
     34 N          28.3088   -0.6960   -2.4430 N.am      2 UNK        -0.4546 
     35 C          27.3869   -1.5564   -1.9913 C.2       1 UNK         0.5154 
     36 O          26.6392   -2.2042   -2.7308 O.2       1 UNK        -0.5181 
     37 C          26.6816   -3.4630   -8.6252 C.2       5 UNK         0.5014 
     38 O          26.7120   -3.7406   -9.8256 O.2       5 UNK        -0.5248 
     39 N          27.3882   -2.4648   -8.0750 N.am      6 UNK        -0.4434 
     40 CA         28.2894   -1.5826   -8.8204 C.3       6 UNK         0.0363 
     41 CB         29.5853   -1.3720   -8.0147 C.3       6 UNK        -0.1936 
     42 C          27.6386   -0.2413   -9.1970 C.2       6 UNK         0.5081 
     43 O          28.3267    0.5992   -9.7736 O.2       6 UNK        -0.5248 
     44 N          26.3545   -0.0346   -8.8615 N.am      7 UNK        -0.4718 
     45 CA         25.5515    1.1642   -9.1472 C.3       7 UNK         0.0273 
     46 CB         25.1721    1.1980  -10.6425 C.3       7 UNK        -0.1935 
     47 C          26.1966    2.4844   -8.6693 C.2       7 UNK         0.5018 
     48 O          26.0713    3.5090   -9.3423 O.2       7 UNK        -0.5186 
     49 N          26.8900    2.4209   -7.5234 N.am      8 UNK        -0.4240 
     50 CA         27.6454    3.4915   -6.8637 C.3       8 UNK         0.0235 
     51 CB         26.7498    4.7040   -6.5263 C.3       8 UNK        -0.2000 
     52 C          28.9474    3.8934   -7.5865 C.2       8 UNK         0.4941 
     53 O          29.5049    4.9433   -7.2646 O.2       8 UNK        -0.5273 
     54 N          29.4614    3.0467   -8.4945 N.am      9 UNK        -0.4262 
     55 CA         30.7581    3.2377   -9.1633 C.3       9 UNK         0.0264 
     56 CB         30.7695    2.4632  -10.4923 C.3       9 UNK        -0.1955 
     57 C          31.9717    2.8405   -8.2958 C.2       9 UNK         0.5031 
     58 O          33.1021    2.9134   -8.7819 O.2       9 UNK        -0.5390 
     59 N          31.7302    2.3939   -7.0518 N.am      10 UNK        -0.4204 
     60 CA         32.7173    2.0084   -6.0300 C.3       10 UNK         0.0237 
     61 CB         33.5082    3.2463   -5.5549 C.3       10 UNK        -0.1985 
     62 C          33.6409    0.8461   -6.4502 C.2       10 UNK         0.4970 
     63 O          34.7576    0.7457   -5.9399 O.2       10 UNK        -0.4914 
     64 N          33.1616    0.0005   -7.3752 N.am      11 UNK        -0.4285 
     65 CA         33.9169   -1.0774   -8.0371 C.3       11 UNK         0.1007 
     66 C          35.1077   -0.5705   -8.9132 C.2       11 UNK         0.5703 
     67 N          35.1413    0.6946   -9.3207 N.am      11 UNK        -0.7361 
     68 O          35.9990   -1.3397   -9.2657 O.2       11 UNK        -0.4986 
     69 C69        34.3030   -2.2320   -7.0629 C.3       12 UNK        -0.0947 
     70 S70        32.8617   -3.2126   -6.5267 S.3       12 UNK        -0.2240 
     71 C71        32.3993   -2.4049   -4.9586 C.3       12 UNK         0.0194 
     72 H72        22.9523   -0.5512   -0.7696 H         1 UNK         0.0906 
     73 H73        23.3277   -1.7908    0.4297 H         1 UNK         0.0906 
     74 H74        23.2604   -0.0929    0.9078 H         1 UNK         0.0906 
     75 H75        25.4302   -2.5552    0.1769 H         1 UNK         0.3140 
     76 H76        27.6924   -0.7911   -0.0035 H         1 UNK         0.1085 
     77 H77        27.7364   -3.8177   -0.4620 H         1 UNK         0.0836 
     78 H78        27.6104   -3.1237    1.1222 H         1 UNK         0.0836 
     79 H79        29.9355   -5.0323   -0.2825 H         1 UNK         0.0731 
     80 H80        31.4965   -4.2581   -0.3174 H         1 UNK         0.0731 
     81 H81        32.2378   -2.9326   -2.2868 H         1 UNK         0.1312 
     82 H82        30.0676   -3.4601   -5.9441 H         1 UNK         0.1406 
     83 H83        28.4730   -4.9822   -2.2767 H         1 UNK         0.1631 
     84 H84        27.2389   -3.8541   -4.9943 H         1 UNK         0.0717 
     85 H85        27.3194   -5.4571   -4.2940 H         1 UNK         0.0717 
     86 H86        26.5356   -6.3032   -8.0625 H         1 UNK         0.0934 
     87 H87        25.8453   -6.1404   -6.4852 H         1 UNK         0.0934 
     88 H88        24.9347   -4.6082   -8.3055 H         1 UNK         0.0739 
     89 H89        25.2226   -4.0404   -5.6706 H         1 UNK         0.3093 
     90 H90        22.7112   -1.7083   -5.6244 H         1 UNK         0.0818 
     91 H91        23.0686   -4.0147   -4.7017 H         1 UNK         0.0819 
     92 H92        24.5362   -3.4674   -3.8878 H         1 UNK         0.0819 
     93 H93        22.9750   -2.8011   -3.4428 H         1 UNK         0.0819 
     94 H94        25.1454   -1.1243   -4.0694 H         1 UNK         0.3041 
     95 H95        25.5026    2.1284   -5.2122 H         1 UNK         0.0784 
     96 H96        23.6092    2.7363   -3.7697 H         1 UNK         0.0793 
     97 H97        24.0733    1.5397   -2.5726 H         1 UNK         0.0793 
     98 H98        25.1050    2.9395   -2.8726 H         1 UNK         0.0793 
     99 H99        26.5109    0.8278   -2.8709 H         1 UNK         0.3024 
    100 H100       28.7323   -1.3774   -4.3527 H         1 UNK         0.1171 
    101 H101       30.6903   -0.0650   -3.5389 H         1 UNK         0.0786 
    102 H102       30.0729    0.5814   -5.0512 H         1 UNK         0.0786 
    103 H103       29.7196    1.4090   -3.5383 H         1 UNK         0.0786 
    104 H104       28.8882   -0.2065   -1.7758 H         1 UNK         0.2977 
    105 H105       27.2782   -2.2699   -7.0904 H         1 UNK         0.3127 
    106 H106       28.5730   -2.0532   -9.7640 H         1 UNK         0.0770 
    107 H107       29.3920   -0.9780   -7.0180 H         1 UNK         0.0814 
    108 H108       30.2550   -0.6751   -8.5190 H         1 UNK         0.0814 
    109 H109       30.1313   -2.3085   -7.9096 H         1 UNK         0.0814 
    110 H110       25.8551   -0.7770   -8.3802 H         1 UNK         0.2983 
    111 H111       24.6301    1.0551   -8.5724 H         1 UNK         0.0947 
    112 H112       24.4742    2.0092  -10.8533 H         1 UNK         0.0806 
    113 H113       24.6892    0.2702  -10.9492 H         1 UNK         0.0806 
    114 H114       26.0475    1.3468  -11.2758 H         1 UNK         0.0806 
    115 H115       26.9601    1.5102   -7.0698 H         1 UNK         0.3000 
    116 H116       27.9683    3.0654   -5.9129 H         1 UNK         0.0850 
    117 H117       27.2680    5.3998   -5.8653 H         1 UNK         0.0810 
    118 H118       25.8355    4.3997   -6.0177 H         1 UNK         0.0810 
    119 H119       26.4673    5.2617   -7.4195 H         1 UNK         0.0810 
    120 H120       28.9371    2.2164   -8.7598 H         1 UNK         0.3040 
    121 H121       30.8704    4.2981   -9.3986 H         1 UNK         0.0766 
    122 H122       29.9006    2.7070  -11.1040 H         1 UNK         0.0812 
    123 H123       30.7756    1.3847  -10.3318 H         1 UNK         0.0812 
    124 H124       31.6561    2.7065  -11.0793 H         1 UNK         0.0812 
    125 H125       30.7636    2.3631   -6.7637 H         1 UNK         0.3205 
    126 H126       32.1537    1.6421   -5.1729 H         1 UNK         0.0754 
    127 H127       34.1375    3.0072   -4.6967 H         1 UNK         0.0769 
    128 H128       32.8391    4.0503   -5.2481 H         1 UNK         0.0769 
    129 H129       34.1604    3.6340   -6.3383 H         1 UNK         0.0769 
    130 H130       32.2422    0.1778   -7.7469 H         1 UNK         0.2981 
    131 H131       33.2280   -1.4979   -8.7705 H         1 UNK         0.0541 
    132 H132       34.4177    1.3543   -9.0566 H         1 UNK         0.3459 
    133 H133       35.9090    1.0016   -9.8962 H         1 UNK         0.3459 
    134 H134       34.9729   -2.9405   -7.5520 H         1 UNK         0.0612 
    135 H135       34.8502   -1.8627   -6.1952 H         1 UNK         0.0612 
    136 H136       32.0575   -1.3918   -5.1667 H         1 UNK         0.0624 
    137 H137       33.2898   -2.3175   -4.3343 H         1 UNK         0.0624 
@<TRIPOS>BOND
     1    1    2 1    
     2    1   72 1    
     3    1   73 1    
     4    1   74 1    
     5    2    3 2    
     6    2    4 am   BACKBONE|DICT|INTERRES
     7    4    5 1    
     8    4   75 1    
     9    5    6 1    
    10    5   35 1    
    11    5   76 1    
    12    6    7 1    
    13    6   77 1    
    14    6   78 1    
    15    7    8 1    
    16    8    9 1    
    17    8   79 1    
    18    8   80 1    
    19    9   10 ar   
    20    9   14 ar   
    21   10   11 ar   
    22   10   81 1    
    23   11   12 ar   
    24   11   71 1    
    25   12   13 ar   
    26   12   82 1    
    27   13   14 ar   
    28   13   15 1    
    29   14   83 1    
    30   15   16 1    
    31   15   84 1    
    32   15   85 1    
    33   16   17 1    
    34   17   18 1    
    35   17   86 1    
    36   17   87 1    
    37   18   19 1    
    38   18   37 1    
    39   18   88 1    
    40   19   20 am   BACKBONE|DICT|INTERRES
    41   19   89 1    
    42   20   21 2    
    43   20   22 1    
    44   22   23 1    
    45   22   24 1    
    46   22   90 1    
    47   23   91 1    
    48   23   92 1    
    49   23   93 1    
    50   24   25 am   BACKBONE|DICT|INTERRES
    51   24   94 1    
    52   25   26 2    
    53   25   27 1    
    54   27   28 1    
    55   27   29 1    
    56   27   95 1    
    57   28   96 1    
    58   28   97 1    
    59   28   98 1    
    60   29   30 am   BACKBONE|DICT|INTERRES
    61   29   99 1    
    62   30   31 2    
    63   30   32 1    
    64   32   33 1    
    65   32   34 1    
    66   32  100 1    
    67   33  101 1    
    68   33  102 1    
    69   33  103 1    
    70   34   35 am   BACKBONE|DICT|INTERRES
    71   34  104 1    
    72   35   36 2    
    73   37   38 2    
    74   37   39 am   BACKBONE|DICT|INTERRES
    75   39   40 1    
    76   39  105 1    
    77   40   41 1    
    78   40   42 1    
    79   40  106 1    
    80   41  107 1    
    81   41  108 1    
    82   41  109 1    
    83   42   43 2    
    84   42   44 am   BACKBONE|DICT|INTERRES
    85   44   45 1    
    86   44  110 1    
    87   45   46 1    
    88   45   47 1    
    89   45  111 1    
    90   46  112 1    
    91   46  113 1    
    92   46  114 1    
    93   47   48 2    
    94   47   49 am   BACKBONE|DICT|INTERRES
    95   49   50 1    
    96   49  115 1    
    97   50   51 1    
    98   50   52 1    
    99   50  116 1    
   100   51  117 1    
   101   51  118 1    
   102   51  119 1    
   103   52   53 2    
   104   52   54 am   BACKBONE|DICT|INTERRES
   105   54   55 1    
   106   54  120 1    
   107   55   56 1    
   108   55   57 1    
   109   55  121 1    
   110   56  122 1    
   111   56  123 1    
   112   56  124 1    
   113   57   58 2    
   114   57   59 am   BACKBONE|DICT|INTERRES
   115   59   60 1    
   116   59  125 1    
   117   60   61 1    
   118   60   62 1    
   119   60  126 1    
   120   61  127 1    
   121   61  128 1    
   122   61  129 1    
   123   62   63 2    
   124   62   64 am   BACKBONE|DICT|INTERRES
   125   64   65 1    
   126   64  130 1    
   127   65   66 1    
   128   65   69 1    
   129   65  131 1    
   130   66   67 am   BACKBONE|DICT|INTERRES
   131   66   68 2    
   132   67  132 1    
   133   67  133 1    
   134   69   70 1    
   135   69  134 1    
   136   69  135 1    
   137   70   71 1    
   138   71  136 1    
   139   71  137 1    
@<TRIPOS>SUBSTRUCTURE
     1 UNK         1 GROUP             0       ****    0 ROOT    
