@<TRIPOS>MOLECULE
3R137
137   139    1
SMALL
USER_CHARGES


@<TRIPOS>ATOM
      1 CA         25.9251   -5.1042   -4.6118 C.3       0 UNK        -0.2020 
      2 C          26.3255   -4.1655   -3.4848 C.2       0 UNK         0.4855 
      3 O          26.5843   -2.9842   -3.7280 O.2       0 UNK        -0.5197 
      4 N          26.3579   -4.7039   -2.2570 N.am      1 UNK        -0.4892 
      5 CA         26.8132   -4.0681   -1.0100 C.3       1 UNK         0.0835 
      6 C6         28.3568   -3.9124   -0.9461 C.3       12 UNK        -0.0855 
      7 S7         29.1726   -5.5448   -0.9258 S.3       12 UNK        -0.2931 
      8 C8         30.9352   -5.0779   -0.9917 C.3       12 UNK         0.0378 
      9 C9         31.3695   -4.4663   -2.3215 C.ar      12 UNK        -0.0802 
     10 C10        32.2934   -3.4155   -2.3273 C.ar      12 UNK        -0.0944 
     11 C11        32.7252   -2.8521   -3.5319 C.ar      12 UNK        -0.0787 
     12 C12        32.2328   -3.3521   -4.7394 C.ar      12 UNK        -0.0862 
     13 C13        31.2904   -4.3829   -4.7491 C.ar      12 UNK        -0.0733 
     14 C14        30.8787   -4.9502   -3.5408 C.ar      12 UNK        -0.0832 
     15 C15        30.6834   -4.8518   -6.0630 C.3       12 UNK         0.0240 
     16 S16        28.9978   -4.1938   -6.2851 S.3       12 UNK        -0.2522 
     17 C17        29.2878   -2.4023   -6.1197 C.3       12 UNK        -0.0967 
     18 CA         28.2569   -1.5607   -6.9017 C.3       5 UNK         0.0660 
     19 N          26.9154   -1.5968   -6.3087 N.am      5 UNK        -0.4015 
     20 C          25.8238   -1.1153   -6.9239 C.2       4 UNK         0.4946 
     21 O          25.8258   -0.6847   -8.0773 O.2       4 UNK        -0.5353 
     22 CA         24.5330   -1.0198   -6.0967 C.3       4 UNK         0.0277 
     23 CB         23.7490   -2.3394   -6.1039 C.3       4 UNK        -0.1981 
     24 N          24.7883   -0.5874   -4.7210 N.am      4 UNK        -0.4209 
     25 C          25.1796    0.6504   -4.3888 C.2       3 UNK         0.4942 
     26 O          25.3695    1.5338   -5.2248 O.2       3 UNK        -0.5208 
     27 CA         25.4582    0.9639   -2.9048 C.3       3 UNK         0.0250 
     28 CB         24.8568    2.3215   -2.4858 C.3       3 UNK        -0.1990 
     29 N          25.0780   -0.0913   -1.9567 N.am      3 UNK        -0.4232 
     30 C          23.8576   -0.5724   -1.6824 C.2       2 UNK         0.4993 
     31 O          22.8290   -0.1925   -2.2438 O.2       2 UNK        -0.5286 
     32 CA         23.7896   -1.6878   -0.6179 C.3       2 UNK         0.0209 
     33 CB         22.3713   -2.2686   -0.4583 C.3       2 UNK        -0.1931 
     34 N          24.7215   -2.7899   -0.8865 N.am      2 UNK        -0.4546 
     35 C          26.0465   -2.7689   -0.6792 C.2       1 UNK         0.5154 
     36 O          26.6447   -1.7754   -0.2598 O.2       1 UNK        -0.5181 
     37 C          28.7687   -0.1170   -7.0729 C.2       5 UNK         0.5014 
     38 O          29.4229    0.1656   -8.0754 O.2       5 UNK        -0.5248 
     39 N          28.4576    0.7782   -6.1232 N.am      6 UNK        -0.4434 
     40 CA         28.8069    2.1995   -6.2037 C.3       6 UNK         0.0363 
     41 CB         28.5689    2.8910   -4.8522 C.3       6 UNK        -0.1936 
     42 C          28.0635    2.9131   -7.3446 C.2       6 UNK         0.5081 
     43 O          28.6932    3.6431   -8.1088 O.2       6 UNK        -0.5248 
     44 N          26.7595    2.6353   -7.4882 N.am      7 UNK        -0.4718 
     45 CA         25.9216    3.1024   -8.5986 C.3       7 UNK         0.0273 
     46 CB         24.4590    2.7106   -8.3369 C.3       7 UNK        -0.1935 
     47 C          26.3883    2.5823   -9.9714 C.2       7 UNK         0.5018 
     48 O          26.3207    3.3224  -10.9530 O.2       7 UNK        -0.5186 
     49 N          26.8905    1.3401  -10.0077 N.am      8 UNK        -0.4240 
     50 CA         27.5113    0.7147  -11.1795 C.3       8 UNK         0.0235 
     51 CB         27.4840   -0.8127  -10.9985 C.3       8 UNK        -0.2000 
     52 C          28.9502    1.1967  -11.4631 C.2       8 UNK         0.4941 
     53 O          29.5190    0.7809  -12.4733 O.2       8 UNK        -0.5273 
     54 N          29.5211    2.0327  -10.5803 N.am      9 UNK        -0.4262 
     55 CA         30.8927    2.5595  -10.6006 C.3       9 UNK         0.0264 
     56 CB         31.1381    3.4422  -11.8432 C.3       9 UNK        -0.1955 
     57 C          31.9775    1.4795  -10.4032 C.2       9 UNK         0.5031 
     58 O          33.1121    1.6625  -10.8485 O.2       9 UNK        -0.5390 
     59 N          31.6249    0.3918   -9.7066 N.am      10 UNK        -0.4204 
     60 CA         32.5258   -0.6789   -9.2734 C.3       10 UNK         0.0237 
     61 CB         31.7976   -2.0267   -9.4247 C.3       10 UNK        -0.1985 
     62 C          33.0071   -0.4752   -7.8231 C.2       10 UNK         0.4970 
     63 O          33.8215   -1.2663   -7.3474 O.2       10 UNK        -0.4914 
     64 N          32.5044    0.5641   -7.1474 N.am      11 UNK        -0.4285 
     65 CA         32.8593    0.9718   -5.7856 C.3       11 UNK         0.1007 
     66 C          32.7979    2.5171   -5.6414 C.2       11 UNK         0.5703 
     67 N          33.1462    3.0488   -4.4788 N.am      11 UNK        -0.7361 
     68 O          32.4364    3.2393   -6.5698 O.2       11 UNK        -0.4986 
     69 C69        32.0090    0.2167   -4.7243 C.3       12 UNK        -0.0947 
     70 S70        32.9255   -0.1017   -3.1792 S.3       12 UNK        -0.2240 
     71 C71        33.7224   -1.7025   -3.5302 C.3       12 UNK         0.0194 
     72 H72        26.4925   -6.0332   -4.5590 H         1 UNK         0.0906 
     73 H73        26.1224   -4.6512   -5.5828 H         1 UNK         0.0906 
     74 H74        24.8633   -5.3415   -4.5542 H         1 UNK         0.0906 
     75 H75        26.1149   -5.6804   -2.1595 H         1 UNK         0.3140 
     76 H76        26.5301   -4.7517   -0.2075 H         1 UNK         0.1085 
     77 H77        28.6637   -3.3820   -0.0426 H         1 UNK         0.0836 
     78 H78        28.7214   -3.3261   -1.7918 H         1 UNK         0.0836 
     79 H79        31.1436   -4.3940   -0.1672 H         1 UNK         0.0731 
     80 H80        31.5370   -5.9696   -0.8121 H         1 UNK         0.0731 
     81 H81        32.6789   -3.0303   -1.3930 H         1 UNK         0.1312 
     82 H82        32.5618   -2.9159   -5.6725 H         1 UNK         0.1406 
     83 H83        30.1547   -5.7534   -3.5536 H         1 UNK         0.1631 
     84 H84        30.6475   -5.9419   -6.0846 H         1 UNK         0.0717 
     85 H85        31.3032   -4.5470   -6.9080 H         1 UNK         0.0717 
     86 H86        29.2890   -2.1396   -5.0595 H         1 UNK         0.0934 
     87 H87        30.2942   -2.1980   -6.4884 H         1 UNK         0.0934 
     88 H88        28.1790   -1.9817   -7.9063 H         1 UNK         0.0739 
     89 H89        26.8329   -1.9808   -5.3699 H         1 UNK         0.3093 
     90 H90        23.9038   -0.2634   -6.5714 H         1 UNK         0.0818 
     91 H91        23.5800   -2.6888   -7.1235 H         1 UNK         0.0819 
     92 H92        24.2756   -3.1265   -5.5705 H         1 UNK         0.0819 
     93 H93        22.7713   -2.2182   -5.6370 H         1 UNK         0.0819 
     94 H94        24.7008   -1.2791   -3.9902 H         1 UNK         0.3041 
     95 H95        26.5426    1.0500   -2.8240 H         1 UNK         0.0784 
     96 H96        25.2490    3.1327   -3.1006 H         1 UNK         0.0793 
     97 H97        23.7715    2.3331   -2.5908 H         1 UNK         0.0793 
     98 H98        25.0968    2.5593   -1.4495 H         1 UNK         0.0793 
     99 H99        25.8468   -0.5141   -1.4406 H         1 UNK         0.3024 
    100 H100       24.0661   -1.2262    0.3332 H         1 UNK         0.1171 
    101 H101       22.0222   -2.7400   -1.3780 H         1 UNK         0.0786 
    102 H102       22.3339   -3.0135    0.3367 H         1 UNK         0.0786 
    103 H103       21.6546   -1.4879   -0.1991 H         1 UNK         0.0786 
    104 H104       24.3220   -3.6318   -1.2764 H         1 UNK         0.2977 
    105 H105       27.8871    0.4869   -5.3444 H         1 UNK         0.3127 
    106 H106       29.8733    2.2633   -6.4244 H         1 UNK         0.0770 
    107 H107       28.9014    3.9292   -4.8890 H         1 UNK         0.0814 
    108 H108       27.5155    2.9009   -4.5749 H         1 UNK         0.0814 
    109 H109       29.1249    2.4039   -4.0511 H         1 UNK         0.0814 
    110 H110       26.3002    2.0714   -6.7758 H         1 UNK         0.2983 
    111 H111       25.9852    4.1924   -8.6228 H         1 UNK         0.0947 
    112 H112       24.3336    1.6284   -8.2911 H         1 UNK         0.0806 
    113 H113       23.8071    3.0823   -9.1285 H         1 UNK         0.0806 
    114 H114       24.0990    3.1277   -7.3961 H         1 UNK         0.0806 
    115 H115       26.8320    0.7731   -9.1677 H         1 UNK         0.3000 
    116 H116       26.9114    0.9625  -12.0576 H         1 UNK         0.0850 
    117 H117       27.8575   -1.3207  -11.8885 H         1 UNK         0.0810 
    118 H118       26.4713   -1.1750  -10.8206 H         1 UNK         0.0810 
    119 H119       28.1052   -1.1281  -10.1604 H         1 UNK         0.0810 
    120 H120       28.9729    2.3148   -9.7753 H         1 UNK         0.3040 
    121 H121       30.9673    3.2081   -9.7263 H         1 UNK         0.0766 
    122 H122       32.0922    3.9653  -11.7686 H         1 UNK         0.0812 
    123 H123       30.3625    4.2005  -11.9503 H         1 UNK         0.0812 
    124 H124       31.1634    2.8543  -12.7610 H         1 UNK         0.0812 
    125 H125       30.6794    0.3457   -9.3238 H         1 UNK         0.3205 
    126 H126       33.4134   -0.6982   -9.9090 H         1 UNK         0.0754 
    127 H127       32.4355   -2.8568   -9.1181 H         1 UNK         0.0769 
    128 H128       31.5127   -2.2045  -10.4618 H         1 UNK         0.0769 
    129 H129       30.8915   -2.0698   -8.8208 H         1 UNK         0.0769 
    130 H130       31.8770    1.1969   -7.6234 H         1 UNK         0.2981 
    131 H131       33.9118    0.7152   -5.6504 H         1 UNK         0.0541 
    132 H132       33.1146    4.0495   -4.3648 H         1 UNK         0.3459 
    133 H133       33.4232    2.4597   -3.7081 H         1 UNK         0.3459 
    134 H134       31.6621   -0.7368   -5.1163 H         1 UNK         0.0612 
    135 H135       31.0982    0.7676   -4.4839 H         1 UNK         0.0612 
    136 H136       34.2475   -1.6440   -4.4850 H         1 UNK         0.0624 
    137 H137       34.4860   -1.8867   -2.7733 H         1 UNK         0.0624 
@<TRIPOS>BOND
     1    1    2 1    
     2    1   72 1    
     3    1   73 1    
     4    1   74 1    
     5    2    3 2    
     6    2    4 am   BACKBONE|DICT|INTERRES
     7    4    5 1    
     8    4   75 1    
     9    5    6 1    
    10    5   35 1    
    11    5   76 1    
    12    6    7 1    
    13    6   77 1    
    14    6   78 1    
    15    7    8 1    
    16    8    9 1    
    17    8   79 1    
    18    8   80 1    
    19    9   10 ar   
    20    9   14 ar   
    21   10   11 ar   
    22   10   81 1    
    23   11   12 ar   
    24   11   71 1    
    25   12   13 ar   
    26   12   82 1    
    27   13   14 ar   
    28   13   15 1    
    29   14   83 1    
    30   15   16 1    
    31   15   84 1    
    32   15   85 1    
    33   16   17 1    
    34   17   18 1    
    35   17   86 1    
    36   17   87 1    
    37   18   19 1    
    38   18   37 1    
    39   18   88 1    
    40   19   20 am   BACKBONE|DICT|INTERRES
    41   19   89 1    
    42   20   21 2    
    43   20   22 1    
    44   22   23 1    
    45   22   24 1    
    46   22   90 1    
    47   23   91 1    
    48   23   92 1    
    49   23   93 1    
    50   24   25 am   BACKBONE|DICT|INTERRES
    51   24   94 1    
    52   25   26 2    
    53   25   27 1    
    54   27   28 1    
    55   27   29 1    
    56   27   95 1    
    57   28   96 1    
    58   28   97 1    
    59   28   98 1    
    60   29   30 am   BACKBONE|DICT|INTERRES
    61   29   99 1    
    62   30   31 2    
    63   30   32 1    
    64   32   33 1    
    65   32   34 1    
    66   32  100 1    
    67   33  101 1    
    68   33  102 1    
    69   33  103 1    
    70   34   35 am   BACKBONE|DICT|INTERRES
    71   34  104 1    
    72   35   36 2    
    73   37   38 2    
    74   37   39 am   BACKBONE|DICT|INTERRES
    75   39   40 1    
    76   39  105 1    
    77   40   41 1    
    78   40   42 1    
    79   40  106 1    
    80   41  107 1    
    81   41  108 1    
    82   41  109 1    
    83   42   43 2    
    84   42   44 am   BACKBONE|DICT|INTERRES
    85   44   45 1    
    86   44  110 1    
    87   45   46 1    
    88   45   47 1    
    89   45  111 1    
    90   46  112 1    
    91   46  113 1    
    92   46  114 1    
    93   47   48 2    
    94   47   49 am   BACKBONE|DICT|INTERRES
    95   49   50 1    
    96   49  115 1    
    97   50   51 1    
    98   50   52 1    
    99   50  116 1    
   100   51  117 1    
   101   51  118 1    
   102   51  119 1    
   103   52   53 2    
   104   52   54 am   BACKBONE|DICT|INTERRES
   105   54   55 1    
   106   54  120 1    
   107   55   56 1    
   108   55   57 1    
   109   55  121 1    
   110   56  122 1    
   111   56  123 1    
   112   56  124 1    
   113   57   58 2    
   114   57   59 am   BACKBONE|DICT|INTERRES
   115   59   60 1    
   116   59  125 1    
   117   60   61 1    
   118   60   62 1    
   119   60  126 1    
   120   61  127 1    
   121   61  128 1    
   122   61  129 1    
   123   62   63 2    
   124   62   64 am   BACKBONE|DICT|INTERRES
   125   64   65 1    
   126   64  130 1    
   127   65   66 1    
   128   65   69 1    
   129   65  131 1    
   130   66   67 am   BACKBONE|DICT|INTERRES
   131   66   68 2    
   132   67  132 1    
   133   67  133 1    
   134   69   70 1    
   135   69  134 1    
   136   69  135 1    
   137   70   71 1    
   138   71  136 1    
   139   71  137 1    
@<TRIPOS>SUBSTRUCTURE
     1 UNK         1 GROUP             0       ****    0 ROOT    
