@<TRIPOS>MOLECULE
3R137
137   139    1
SMALL
USER_CHARGES


@<TRIPOS>ATOM
      1 CA         27.6850   -4.9941   -9.1786 C.3       0 UNK        -0.2020 
      2 C          27.1471   -5.2136   -7.7730 C.2       0 UNK         0.4855 
      3 O          26.4441   -6.1962   -7.5359 O.2       0 UNK        -0.5197 
      4 N          27.4819   -4.3179   -6.8349 N.am      1 UNK        -0.4892 
      5 CA         27.0242   -4.3710   -5.4455 C.3       1 UNK         0.0835 
      6 C6         27.9080   -3.4956   -4.5241 C.3       12 UNK        -0.0855 
      7 S7         27.5715   -3.8011   -2.7556 S.3       12 UNK        -0.2931 
      8 C8         29.2563   -3.9773   -2.0836 C.3       12 UNK         0.0378 
      9 C9         29.9820   -2.6403   -2.0381 C.ar      12 UNK        -0.0802 
     10 C10        31.1350   -2.4212   -2.7995 C.ar      12 UNK        -0.0944 
     11 C11        31.8001   -1.1906   -2.7430 C.ar      12 UNK        -0.0787 
     12 C12        31.2877   -0.1688   -1.9368 C.ar      12 UNK        -0.0862 
     13 C13        30.1222   -0.3713   -1.1905 C.ar      12 UNK        -0.0733 
     14 C14        29.4918   -1.6168   -1.2239 C.ar      12 UNK        -0.0832 
     15 C15        29.5065    0.7634   -0.3857 C.3       12 UNK         0.0240 
     16 S16        27.9225    1.3066   -1.1122 S.3       12 UNK        -0.2522 
     17 C17        28.4464    1.8134   -2.7855 C.3       12 UNK        -0.0967 
     18 CA         28.1653    0.7163   -3.8588 C.3       5 UNK         0.0660 
     19 N          26.7454    0.3803   -3.9896 N.am      5 UNK        -0.4015 
     20 C          25.7752    1.1781   -4.4590 C.2       4 UNK         0.4946 
     21 O          25.9625    2.3352   -4.8393 O.2       4 UNK        -0.5353 
     22 CA         24.3540    0.5920   -4.5289 C.3       4 UNK         0.0277 
     23 CB         23.9432    0.3491   -5.9895 C.3       4 UNK        -0.1981 
     24 N          24.2206   -0.6619   -3.7800 N.am      4 UNK        -0.4209 
     25 C          23.9489   -0.7344   -2.4672 C.2       3 UNK         0.4942 
     26 O          23.7607    0.2605   -1.7654 O.2       3 UNK        -0.5208 
     27 CA         23.9068   -2.1311   -1.8071 C.3       3 UNK         0.0250 
     28 CB         22.7751   -2.2538   -0.7643 C.3       3 UNK        -0.1990 
     29 N          23.8770   -3.2524   -2.7551 N.am      3 UNK        -0.4232 
     30 C          22.9191   -3.5591   -3.6454 C.2       2 UNK         0.4993 
     31 O          21.8418   -2.9675   -3.7267 O.2       2 UNK        -0.5286 
     32 CA         23.2442   -4.6998   -4.6357 C.3       2 UNK         0.0209 
     33 CB         22.4902   -4.5459   -5.9746 C.3       2 UNK        -0.1931 
     34 N          24.6861   -4.8795   -4.8799 N.am      2 UNK        -0.4546 
     35 C          25.5412   -3.9605   -5.3563 C.2       1 UNK         0.5154 
     36 O          25.2165   -2.8094   -5.6548 O.2       1 UNK        -0.5181 
     37 C          28.7797    1.0070   -5.2450 C.2       5 UNK         0.5014 
     38 O          28.5205    0.2561   -6.1918 O.2       5 UNK        -0.5248 
     39 N          29.5746    2.0812   -5.3528 N.am      6 UNK        -0.4434 
     40 CA         30.3072    2.4989   -6.5493 C.3       6 UNK         0.0363 
     41 CB         31.1363    3.7491   -6.2213 C.3       6 UNK        -0.1936 
     42 C          29.4365    2.7457   -7.7911 C.2       6 UNK         0.5081 
     43 O          29.9418    2.5934   -8.9015 O.2       6 UNK        -0.5248 
     44 N          28.1490    3.0669   -7.5986 N.am      7 UNK        -0.4718 
     45 CA         27.1667    3.2275   -8.6751 C.3       7 UNK         0.0273 
     46 CB         25.8574    3.7819   -8.0923 C.3       7 UNK        -0.1935 
     47 C          26.9012    1.9352   -9.4720 C.2       7 UNK         0.5018 
     48 O          26.4945    2.0284  -10.6309 O.2       7 UNK        -0.5186 
     49 N          27.1458    0.7706   -8.8543 N.am      8 UNK        -0.4240 
     50 CA         27.0698   -0.5405   -9.4981 C.3       8 UNK         0.0235 
     51 CB         26.1038   -1.4407   -8.7133 C.3       8 UNK        -0.2000 
     52 C          28.4532   -1.1972   -9.5974 C.2       8 UNK         0.4941 
     53 O          28.7707   -1.7678  -10.6405 O.2       8 UNK        -0.5273 
     54 N          29.2433   -1.1377   -8.5151 N.am      9 UNK        -0.4262 
     55 CA         30.5283   -1.8332   -8.3964 C.3       9 UNK         0.0264 
     56 CB         30.8594   -2.0164   -6.9064 C.3       9 UNK        -0.1955 
     57 C          31.7015   -1.1531   -9.1225 C.2       9 UNK         0.5031 
     58 O          32.7117   -1.8201   -9.3482 O.2       9 UNK        -0.5390 
     59 N          31.5818    0.1476   -9.4373 N.am      10 UNK        -0.4204 
     60 CA         32.6157    1.0093  -10.0364 C.3       10 UNK         0.0237 
     61 CB         32.9660    0.5441  -11.4665 C.3       10 UNK        -0.1985 
     62 C          33.8681    1.2035   -9.1516 C.2       10 UNK         0.4970 
     63 O          34.9207    1.5874   -9.6635 O.2       10 UNK        -0.4914 
     64 N          33.7337    0.9534   -7.8427 N.am      11 UNK        -0.4285 
     65 CA         34.7936    1.0550   -6.8282 C.3       11 UNK         0.1007 
     66 C          35.1385    2.4998   -6.3577 C.2       11 UNK         0.5703 
     67 N          34.5179    3.5436   -6.8934 N.am      11 UNK        -0.7361 
     68 O          36.0044    2.6799   -5.5045 O.2       11 UNK        -0.4986 
     69 C69        34.5353    0.0761   -5.6505 C.3       12 UNK        -0.0947 
     70 S70        32.9240    0.2907   -4.8190 S.3       12 UNK        -0.2240 
     71 C71        33.0901   -0.9774   -3.5242 C.3       12 UNK         0.0194 
     72 H72        28.1627   -5.9030   -9.5434 H         1 UNK         0.0906 
     73 H73        26.8722   -4.7414   -9.8588 H         1 UNK         0.0906 
     74 H74        28.4217   -4.1936   -9.2131 H         1 UNK         0.0906 
     75 H75        28.0288   -3.5090   -7.0882 H         1 UNK         0.3140 
     76 H76        27.1226   -5.4062   -5.1094 H         1 UNK         0.1085 
     77 H77        27.7841   -2.4325   -4.7401 H         1 UNK         0.0836 
     78 H78        28.9578   -3.7194   -4.7148 H         1 UNK         0.0836 
     79 H79        29.1911   -4.3785   -1.0713 H         1 UNK         0.0731 
     80 H80        29.8118   -4.7120   -2.6687 H         1 UNK         0.0731 
     81 H81        31.5228   -3.2133   -3.4255 H         1 UNK         0.1312 
     82 H82        31.7908    0.7882   -1.9065 H         1 UNK         0.1406 
     83 H83        28.5900   -1.7760   -0.6478 H         1 UNK         0.1631 
     84 H84        30.1867    1.6142   -0.3231 H         1 UNK         0.0717 
     85 H85        29.3338    0.4300    0.6385 H         1 UNK         0.0717 
     86 H86        27.9296    2.7420   -3.0346 H         1 UNK         0.0934 
     87 H87        29.5079    2.0603   -2.7358 H         1 UNK         0.0934 
     88 H88        28.6530   -0.2030   -3.5365 H         1 UNK         0.0739 
     89 H89        26.4928   -0.5603   -3.7294 H         1 UNK         0.3093 
     90 H90        23.6738    1.3357   -4.1082 H         1 UNK         0.0818 
     91 H91        22.9326   -0.0540   -6.0572 H         1 UNK         0.0819 
     92 H92        23.9623    1.2764   -6.5627 H         1 UNK         0.0819 
     93 H93        24.6167   -0.3514   -6.4805 H         1 UNK         0.0819 
     94 H94        24.3721   -1.5170   -4.3071 H         1 UNK         0.3041 
     95 H95        24.8528   -2.2269   -1.2716 H         1 UNK         0.0784 
     96 H96        22.8955   -1.5195    0.0331 H         1 UNK         0.0793 
     97 H97        21.7934   -2.0887   -1.2090 H         1 UNK         0.0793 
     98 H98        22.7711   -3.2382   -0.2964 H         1 UNK         0.0793 
     99 H99        24.7229   -3.8058   -2.7858 H         1 UNK         0.3024 
    100 H100       22.8914   -5.6166   -4.1602 H         1 UNK         0.1171 
    101 H101       22.7267   -5.3608   -6.6589 H         1 UNK         0.0786 
    102 H102       22.7381   -3.6078   -6.4728 H         1 UNK         0.0786 
    103 H103       21.4103   -4.5570   -5.8217 H         1 UNK         0.0786 
    104 H104       25.0514   -5.7953   -4.6544 H         1 UNK         0.2977 
    105 H105       29.7142    2.6525   -4.5329 H         1 UNK         0.3127 
    106 H106       30.9942    1.6901   -6.8013 H         1 UNK         0.0770 
    107 H107       30.5080    4.5714   -5.8767 H         1 UNK         0.0814 
    108 H108       31.6763    4.1033   -7.1001 H         1 UNK         0.0814 
    109 H109       31.8771    3.5426   -5.4484 H         1 UNK         0.0814 
    110 H110       27.8039    3.1417   -6.6508 H         1 UNK         0.2983 
    111 H111       27.5654    3.9617   -9.3787 H         1 UNK         0.0947 
    112 H112       25.1214    3.9533   -8.8791 H         1 UNK         0.0806 
    113 H113       26.0180    4.7343   -7.5869 H         1 UNK         0.0806 
    114 H114       25.4122    3.0923   -7.3753 H         1 UNK         0.0806 
    115 H115       27.4889    0.7946   -7.9000 H         1 UNK         0.3000 
    116 H116       26.6844   -0.4474  -10.5158 H         1 UNK         0.0850 
    117 H117       26.0462   -2.4364   -9.1532 H         1 UNK         0.0810 
    118 H118       25.0939   -1.0314   -8.7193 H         1 UNK         0.0810 
    119 H119       26.4143   -1.5561   -7.6745 H         1 UNK         0.0810 
    120 H120       28.9192   -0.6467   -7.6823 H         1 UNK         0.3040 
    121 H121       30.4250   -2.8268   -8.8372 H         1 UNK         0.0766 
    122 H122       31.8275   -2.5005   -6.7690 H         1 UNK         0.0812 
    123 H123       30.1173   -2.6383   -6.4109 H         1 UNK         0.0812 
    124 H124       30.8946   -1.0626   -6.3822 H         1 UNK         0.0812 
    125 H125       30.7106    0.6210   -9.2245 H         1 UNK         0.3205 
    126 H126       32.1684    1.9995  -10.1258 H         1 UNK         0.0754 
    127 H127       33.6015    1.2726  -11.9715 H         1 UNK         0.0769 
    128 H128       32.0692    0.4239  -12.0744 H         1 UNK         0.0769 
    129 H129       33.5011   -0.4059  -11.4661 H         1 UNK         0.0769 
    130 H130       32.8393    0.6425   -7.4989 H         1 UNK         0.2981 
    131 H131       35.7119    0.7086   -7.3060 H         1 UNK         0.0541 
    132 H132       33.8397    3.4135   -7.6245 H         1 UNK         0.3459 
    133 H133       34.7620    4.4714   -6.5856 H         1 UNK         0.3459 
    134 H134       35.3302    0.1464   -4.9058 H         1 UNK         0.0612 
    135 H135       34.5767   -0.9475   -6.0264 H         1 UNK         0.0612 
    136 H136       33.4134   -1.9122   -3.9850 H         1 UNK         0.0624 
    137 H137       33.8823   -0.6820   -2.8349 H         1 UNK         0.0624 
@<TRIPOS>BOND
     1    1    2 1    
     2    1   72 1    
     3    1   73 1    
     4    1   74 1    
     5    2    3 2    
     6    2    4 am   BACKBONE|DICT|INTERRES
     7    4    5 1    
     8    4   75 1    
     9    5    6 1    
    10    5   35 1    
    11    5   76 1    
    12    6    7 1    
    13    6   77 1    
    14    6   78 1    
    15    7    8 1    
    16    8    9 1    
    17    8   79 1    
    18    8   80 1    
    19    9   10 ar   
    20    9   14 ar   
    21   10   11 ar   
    22   10   81 1    
    23   11   12 ar   
    24   11   71 1    
    25   12   13 ar   
    26   12   82 1    
    27   13   14 ar   
    28   13   15 1    
    29   14   83 1    
    30   15   16 1    
    31   15   84 1    
    32   15   85 1    
    33   16   17 1    
    34   17   18 1    
    35   17   86 1    
    36   17   87 1    
    37   18   19 1    
    38   18   37 1    
    39   18   88 1    
    40   19   20 am   BACKBONE|DICT|INTERRES
    41   19   89 1    
    42   20   21 2    
    43   20   22 1    
    44   22   23 1    
    45   22   24 1    
    46   22   90 1    
    47   23   91 1    
    48   23   92 1    
    49   23   93 1    
    50   24   25 am   BACKBONE|DICT|INTERRES
    51   24   94 1    
    52   25   26 2    
    53   25   27 1    
    54   27   28 1    
    55   27   29 1    
    56   27   95 1    
    57   28   96 1    
    58   28   97 1    
    59   28   98 1    
    60   29   30 am   BACKBONE|DICT|INTERRES
    61   29   99 1    
    62   30   31 2    
    63   30   32 1    
    64   32   33 1    
    65   32   34 1    
    66   32  100 1    
    67   33  101 1    
    68   33  102 1    
    69   33  103 1    
    70   34   35 am   BACKBONE|DICT|INTERRES
    71   34  104 1    
    72   35   36 2    
    73   37   38 2    
    74   37   39 am   BACKBONE|DICT|INTERRES
    75   39   40 1    
    76   39  105 1    
    77   40   41 1    
    78   40   42 1    
    79   40  106 1    
    80   41  107 1    
    81   41  108 1    
    82   41  109 1    
    83   42   43 2    
    84   42   44 am   BACKBONE|DICT|INTERRES
    85   44   45 1    
    86   44  110 1    
    87   45   46 1    
    88   45   47 1    
    89   45  111 1    
    90   46  112 1    
    91   46  113 1    
    92   46  114 1    
    93   47   48 2    
    94   47   49 am   BACKBONE|DICT|INTERRES
    95   49   50 1    
    96   49  115 1    
    97   50   51 1    
    98   50   52 1    
    99   50  116 1    
   100   51  117 1    
   101   51  118 1    
   102   51  119 1    
   103   52   53 2    
   104   52   54 am   BACKBONE|DICT|INTERRES
   105   54   55 1    
   106   54  120 1    
   107   55   56 1    
   108   55   57 1    
   109   55  121 1    
   110   56  122 1    
   111   56  123 1    
   112   56  124 1    
   113   57   58 2    
   114   57   59 am   BACKBONE|DICT|INTERRES
   115   59   60 1    
   116   59  125 1    
   117   60   61 1    
   118   60   62 1    
   119   60  126 1    
   120   61  127 1    
   121   61  128 1    
   122   61  129 1    
   123   62   63 2    
   124   62   64 am   BACKBONE|DICT|INTERRES
   125   64   65 1    
   126   64  130 1    
   127   65   66 1    
   128   65   69 1    
   129   65  131 1    
   130   66   67 am   BACKBONE|DICT|INTERRES
   131   66   68 2    
   132   67  132 1    
   133   67  133 1    
   134   69   70 1    
   135   69  134 1    
   136   69  135 1    
   137   70   71 1    
   138   71  136 1    
   139   71  137 1    
@<TRIPOS>SUBSTRUCTURE
     1 UNK         1 GROUP             0       ****    0 ROOT    
