@<TRIPOS>MOLECULE
3R137
137   139    1
SMALL
USER_CHARGES


@<TRIPOS>ATOM
      1 CA         30.0861   -4.8362   -2.1485 C.3       0 UNK        -0.2020 
      2 C          29.2981   -4.0491   -1.1141 C.2       0 UNK         0.4855 
      3 O          28.8568   -4.6124   -0.1122 O.2       0 UNK        -0.5197 
      4 N          29.1242   -2.7437   -1.3531 N.am      1 UNK        -0.4892 
      5 CA         28.4177   -1.8062   -0.4681 C.3       1 UNK         0.0835 
      6 C6         28.7118   -0.3284   -0.8288 C.3       12 UNK        -0.0855 
      7 S7         30.4915    0.0828   -0.7572 S.3       12 UNK        -0.2931 
      8 C8         30.8534    0.5427   -2.4821 C.3       12 UNK         0.0378 
      9 C9         31.0267   -0.6796   -3.3714 C.ar      12 UNK        -0.0802 
     10 C10        32.2868   -1.2644   -3.5154 C.ar      12 UNK        -0.0944 
     11 C11        32.4609   -2.3917   -4.3214 C.ar      12 UNK        -0.0787 
     12 C12        31.3473   -2.9493   -4.9617 C.ar      12 UNK        -0.0862 
     13 C13        30.0813   -2.3685   -4.8454 C.ar      12 UNK        -0.0733 
     14 C14        29.9353   -1.2199   -4.0560 C.ar      12 UNK        -0.0832 
     15 C15        28.9173   -3.0080   -5.6056 C.3       12 UNK         0.0240 
     16 S16        27.2674   -2.7252   -4.8794 S.3       12 UNK        -0.2522 
     17 C17        26.8567   -1.0814   -5.5585 C.3       12 UNK        -0.0967 
     18 CA         25.7385   -1.1387   -6.6268 C.3       5 UNK         0.0660 
     19 N          24.4718   -1.6288   -6.0770 N.am      5 UNK        -0.4015 
     20 C          23.4653   -2.1349   -6.8066 C.2       4 UNK         0.4946 
     21 O          23.5112   -2.2373   -8.0347 O.2       4 UNK        -0.5353 
     22 CA         22.2035   -2.6360   -6.0761 C.3       4 UNK         0.0277 
     23 CB         22.0970   -4.1668   -6.1843 C.3       4 UNK        -0.1981 
     24 N          22.1430   -2.2622   -4.6628 N.am      4 UNK        -0.4209 
     25 C          21.8499   -1.0421   -4.1914 C.2       3 UNK         0.4942 
     26 O          21.5322   -0.0908   -4.9052 O.2       3 UNK        -0.5208 
     27 CA         21.9479   -0.8457   -2.6646 C.3       3 UNK         0.0250 
     28 CB         20.5531   -0.9217   -2.0222 C.3       3 UNK        -0.1990 
     29 N          22.8414   -1.8046   -1.9986 N.am      3 UNK        -0.4232 
     30 C          24.1614   -1.8850   -2.2161 C.2       2 UNK         0.4993 
     31 O          24.7651   -1.1447   -2.9947 O.2       2 UNK        -0.5286 
     32 CA         24.9023   -3.0341   -1.5174 C.3       2 UNK         0.0209 
     33 CB         24.7271   -4.3399   -2.3121 C.3       2 UNK        -0.1931 
     34 N          26.3319   -2.7447   -1.4049 N.am      2 UNK        -0.4546 
     35 C          26.8921   -2.0496   -0.4063 C.2       1 UNK         0.5154 
     36 O          26.2533   -1.6078    0.5509 O.2       1 UNK        -0.5181 
     37 C          25.5476    0.2262   -7.3208 C.2       5 UNK         0.5014 
     38 O          25.9187    1.2613   -6.7657 O.2       5 UNK        -0.5248 
     39 N          24.9894    0.2067   -8.5378 N.am      6 UNK        -0.4434 
     40 CA         24.8113    1.3820   -9.3986 C.3       6 UNK         0.0363 
     41 CB         23.9473    0.9953  -10.6095 C.3       6 UNK        -0.1936 
     42 C          26.1390    2.0131   -9.8638 C.2       6 UNK         0.5081 
     43 O          26.1730    3.2127  -10.1376 O.2       6 UNK        -0.5248 
     44 N          27.2036    1.2024   -9.9278 N.am      7 UNK        -0.4718 
     45 CA         28.5652    1.6033  -10.2868 C.3       7 UNK         0.0273 
     46 CB         29.0299    0.7691  -11.4958 C.3       7 UNK        -0.1935 
     47 C          29.5134    1.4611   -9.0827 C.2       7 UNK         0.5018 
     48 O          30.6635    1.0545   -9.2601 O.2       7 UNK        -0.5186 
     49 N          29.0237    1.7918   -7.8767 N.am      8 UNK        -0.4240 
     50 CA         29.7304    1.6985   -6.5896 C.3       8 UNK         0.0235 
     51 CB         28.8712    2.3462   -5.4901 C.3       8 UNK        -0.2000 
     52 C          31.1414    2.3097   -6.5751 C.2       8 UNK         0.4941 
     53 O          32.0627    1.6923   -6.0423 O.2       8 UNK        -0.5273 
     54 N          31.2952    3.4802   -7.2097 N.am      9 UNK        -0.4262 
     55 CA         32.5659    4.1988   -7.3544 C.3       9 UNK         0.0264 
     56 CB         32.2934    5.5768   -7.9798 C.3       9 UNK        -0.1955 
     57 C          33.6378    3.4444   -8.1665 C.2       9 UNK         0.5031 
     58 O          34.8228    3.7407   -8.0059 O.2       9 UNK        -0.5390 
     59 N          33.2150    2.4947   -9.0110 N.am      10 UNK        -0.4204 
     60 CA         34.0790    1.6354   -9.8201 C.3       10 UNK         0.0237 
     61 CB         33.5913    1.7000  -11.2791 C.3       10 UNK        -0.1985 
     62 C          34.0889    0.1804   -9.3142 C.2       10 UNK         0.4970 
     63 O          34.7097   -0.6606   -9.9662 O.2       10 UNK        -0.4914 
     64 N          33.4000   -0.1074   -8.1974 N.am      11 UNK        -0.4285 
     65 CA         33.1397   -1.4613   -7.6807 C.3       11 UNK         0.1007 
     66 C          32.2750   -2.3290   -8.6536 C.2       11 UNK         0.5703 
     67 N          31.3486   -1.7311   -9.3944 N.am      11 UNK        -0.7361 
     68 O          32.4247   -3.5441   -8.7499 O.2       11 UNK        -0.4986 
     69 C69        34.4404   -2.1310   -7.1352 C.3       12 UNK        -0.0947 
     70 S70        34.2103   -3.6461   -6.1371 S.3       12 UNK        -0.2240 
     71 C71        33.8533   -3.0008   -4.4679 C.3       12 UNK         0.0194 
     72 H72        29.5042   -4.9516   -3.0626 H         1 UNK         0.0906 
     73 H73        31.0188   -4.3274   -2.3910 H         1 UNK         0.0906 
     74 H74        30.3330   -5.8293   -1.7739 H         1 UNK         0.0906 
     75 H75        29.5500   -2.3320   -2.1733 H         1 UNK         0.3140 
     76 H76        28.7910   -1.9789    0.5440 H         1 UNK         0.1085 
     77 H77        28.2042    0.3367   -0.1269 H         1 UNK         0.0836 
     78 H78        28.3044   -0.0830   -1.8105 H         1 UNK         0.0836 
     79 H79        31.7638    1.1439   -2.5038 H         1 UNK         0.0731 
     80 H80        30.0598    1.1864   -2.8578 H         1 UNK         0.0731 
     81 H81        33.1345   -0.8375   -2.9968 H         1 UNK         0.1312 
     82 H82        31.4689   -3.8337   -5.5721 H         1 UNK         0.1406 
     83 H83        28.9729   -0.7433   -3.9541 H         1 UNK         0.1631 
     84 H84        29.0672   -4.0880   -5.6459 H         1 UNK         0.0717 
     85 H85        28.9299   -2.6620   -6.6402 H         1 UNK         0.0717 
     86 H86        26.5703   -0.4261   -4.7340 H         1 UNK         0.0934 
     87 H87        27.7574   -0.6427   -5.9901 H         1 UNK         0.0934 
     88 H88        26.0677   -1.8423   -7.3951 H         1 UNK         0.0739 
     89 H89        24.3739   -1.5520   -5.0711 H         1 UNK         0.3093 
     90 H90        21.3426   -2.1965   -6.5845 H         1 UNK         0.0818 
     91 H91        22.9337   -4.6661   -5.6938 H         1 UNK         0.0819 
     92 H92        21.1743   -4.5343   -5.7346 H         1 UNK         0.0819 
     93 H93        22.0942   -4.4864   -7.2275 H         1 UNK         0.0819 
     94 H94        22.3780   -2.9817   -3.9955 H         1 UNK         0.3041 
     95 H95        22.3495    0.1556   -2.4940 H         1 UNK         0.0784 
     96 H96        19.8739   -0.1994   -2.4777 H         1 UNK         0.0793 
     97 H97        20.1056   -1.9093   -2.1416 H         1 UNK         0.0793 
     98 H98        20.5934   -0.6964   -0.9563 H         1 UNK         0.0793 
     99 H99        22.4094   -2.4513   -1.3533 H         1 UNK         0.3024 
    100 H100       24.4819   -3.1691   -0.5179 H         1 UNK         0.1171 
    101 H101       25.0887   -4.2436   -3.3368 H         1 UNK         0.0786 
    102 H102       23.6782   -4.6345   -2.3625 H         1 UNK         0.0786 
    103 H103       25.2684   -5.1626   -1.8441 H         1 UNK         0.0786 
    104 H104       26.9137   -3.0154   -2.1851 H         1 UNK         0.2977 
    105 H105       24.6212   -0.6785   -8.8720 H         1 UNK         0.3127 
    106 H106       24.2750    2.1389   -8.8221 H         1 UNK         0.0770 
    107 H107       24.4252    0.2262  -11.2177 H         1 UNK         0.0814 
    108 H108       23.7707    1.8577  -11.2541 H         1 UNK         0.0814 
    109 H109       22.9721    0.6204  -10.2981 H         1 UNK         0.0814 
    110 H110       27.0754    0.2336   -9.6718 H         1 UNK         0.2983 
    111 H111       28.5905    2.6559  -10.5766 H         1 UNK         0.0947 
    112 H112       30.0189    1.0818  -11.8335 H         1 UNK         0.0806 
    113 H113       28.3514    0.8858  -12.3409 H         1 UNK         0.0806 
    114 H114       29.0872   -0.2933  -11.2559 H         1 UNK         0.0806 
    115 H115       28.0579    2.0890   -7.8301 H         1 UNK         0.3000 
    116 H116       29.8480    0.6378   -6.3602 H         1 UNK         0.0850 
    117 H117       29.4364    2.4842   -4.5693 H         1 UNK         0.0810 
    118 H118       28.0052    1.7338   -5.2446 H         1 UNK         0.0810 
    119 H119       28.5095    3.3309   -5.7880 H         1 UNK         0.0810 
    120 H120       30.4807    3.9070   -7.6271 H         1 UNK         0.3040 
    121 H121       32.9720    4.3519   -6.3523 H         1 UNK         0.0766 
    122 H122       31.6091    6.1640   -7.3671 H         1 UNK         0.0812 
    123 H123       31.8627    5.4892   -8.9781 H         1 UNK         0.0812 
    124 H124       33.2154    6.1527   -8.0728 H         1 UNK         0.0812 
    125 H125       32.2230    2.2806   -9.0575 H         1 UNK         0.3205 
    126 H126       35.1109    1.9906   -9.7892 H         1 UNK         0.0754 
    127 H127       34.2378    1.1185  -11.9377 H         1 UNK         0.0769 
    128 H128       33.5909    2.7244  -11.6517 H         1 UNK         0.0769 
    129 H129       32.5797    1.3049  -11.3823 H         1 UNK         0.0769 
    130 H130       32.9345    0.6407   -7.6983 H         1 UNK         0.2981 
    131 H131       32.4893   -1.2877   -6.8261 H         1 UNK         0.0541 
    132 H132       31.2033   -0.7269   -9.3377 H         1 UNK         0.3459 
    133 H133       30.7956   -2.2862  -10.0262 H         1 UNK         0.3459 
    134 H134       35.1012   -2.3879   -7.9639 H         1 UNK         0.0612 
    135 H135       34.9940   -1.4148   -6.5262 H         1 UNK         0.0612 
    136 H136       34.6235   -2.2750   -4.2022 H         1 UNK         0.0624 
    137 H137       33.9423   -3.8218   -3.7556 H         1 UNK         0.0624 
@<TRIPOS>BOND
     1    1    2 1    
     2    1   72 1    
     3    1   73 1    
     4    1   74 1    
     5    2    3 2    
     6    2    4 am   BACKBONE|DICT|INTERRES
     7    4    5 1    
     8    4   75 1    
     9    5    6 1    
    10    5   35 1    
    11    5   76 1    
    12    6    7 1    
    13    6   77 1    
    14    6   78 1    
    15    7    8 1    
    16    8    9 1    
    17    8   79 1    
    18    8   80 1    
    19    9   10 ar   
    20    9   14 ar   
    21   10   11 ar   
    22   10   81 1    
    23   11   12 ar   
    24   11   71 1    
    25   12   13 ar   
    26   12   82 1    
    27   13   14 ar   
    28   13   15 1    
    29   14   83 1    
    30   15   16 1    
    31   15   84 1    
    32   15   85 1    
    33   16   17 1    
    34   17   18 1    
    35   17   86 1    
    36   17   87 1    
    37   18   19 1    
    38   18   37 1    
    39   18   88 1    
    40   19   20 am   BACKBONE|DICT|INTERRES
    41   19   89 1    
    42   20   21 2    
    43   20   22 1    
    44   22   23 1    
    45   22   24 1    
    46   22   90 1    
    47   23   91 1    
    48   23   92 1    
    49   23   93 1    
    50   24   25 am   BACKBONE|DICT|INTERRES
    51   24   94 1    
    52   25   26 2    
    53   25   27 1    
    54   27   28 1    
    55   27   29 1    
    56   27   95 1    
    57   28   96 1    
    58   28   97 1    
    59   28   98 1    
    60   29   30 am   BACKBONE|DICT|INTERRES
    61   29   99 1    
    62   30   31 2    
    63   30   32 1    
    64   32   33 1    
    65   32   34 1    
    66   32  100 1    
    67   33  101 1    
    68   33  102 1    
    69   33  103 1    
    70   34   35 am   BACKBONE|DICT|INTERRES
    71   34  104 1    
    72   35   36 2    
    73   37   38 2    
    74   37   39 am   BACKBONE|DICT|INTERRES
    75   39   40 1    
    76   39  105 1    
    77   40   41 1    
    78   40   42 1    
    79   40  106 1    
    80   41  107 1    
    81   41  108 1    
    82   41  109 1    
    83   42   43 2    
    84   42   44 am   BACKBONE|DICT|INTERRES
    85   44   45 1    
    86   44  110 1    
    87   45   46 1    
    88   45   47 1    
    89   45  111 1    
    90   46  112 1    
    91   46  113 1    
    92   46  114 1    
    93   47   48 2    
    94   47   49 am   BACKBONE|DICT|INTERRES
    95   49   50 1    
    96   49  115 1    
    97   50   51 1    
    98   50   52 1    
    99   50  116 1    
   100   51  117 1    
   101   51  118 1    
   102   51  119 1    
   103   52   53 2    
   104   52   54 am   BACKBONE|DICT|INTERRES
   105   54   55 1    
   106   54  120 1    
   107   55   56 1    
   108   55   57 1    
   109   55  121 1    
   110   56  122 1    
   111   56  123 1    
   112   56  124 1    
   113   57   58 2    
   114   57   59 am   BACKBONE|DICT|INTERRES
   115   59   60 1    
   116   59  125 1    
   117   60   61 1    
   118   60   62 1    
   119   60  126 1    
   120   61  127 1    
   121   61  128 1    
   122   61  129 1    
   123   62   63 2    
   124   62   64 am   BACKBONE|DICT|INTERRES
   125   64   65 1    
   126   64  130 1    
   127   65   66 1    
   128   65   69 1    
   129   65  131 1    
   130   66   67 am   BACKBONE|DICT|INTERRES
   131   66   68 2    
   132   67  132 1    
   133   67  133 1    
   134   69   70 1    
   135   69  134 1    
   136   69  135 1    
   137   70   71 1    
   138   71  136 1    
   139   71  137 1    
@<TRIPOS>SUBSTRUCTURE
     1 UNK         1 GROUP             0       ****    0 ROOT    
