@<TRIPOS>MOLECULE
3R137
137   139    1
SMALL
USER_CHARGES


@<TRIPOS>ATOM
      1 CA         24.1007   -4.0364    3.8097 C.3       0 UNK        -0.2020 
      2 C          25.1185   -3.3096    2.9432 C.2       0 UNK         0.4855 
      3 O          25.4542   -2.1593    3.2274 O.2       0 UNK        -0.5197 
      4 N          25.6185   -3.9730    1.8931 N.am      1 UNK        -0.4892 
      5 CA         26.5464   -3.4026    0.9118 C.3       1 UNK         0.0835 
      6 C6         27.2491   -4.5212    0.0973 C.3       12 UNK        -0.0855 
      7 S7         28.8807   -4.0078   -0.5329 S.3       12 UNK        -0.2931 
      8 C8         28.5381   -3.8150   -2.3109 C.3       12 UNK         0.0378 
      9 C9         29.7093   -3.1596   -3.0281 C.ar      12 UNK        -0.0802 
     10 C10        30.4678   -3.8703   -3.9662 C.ar      12 UNK        -0.0944 
     11 C11        31.5476   -3.2571   -4.6123 C.ar      12 UNK        -0.0787 
     12 C12        31.8776   -1.9364   -4.2976 C.ar      12 UNK        -0.0862 
     13 C13        31.1306   -1.2200   -3.3599 C.ar      12 UNK        -0.0733 
     14 C14        30.0379   -1.8309   -2.7415 C.ar      12 UNK        -0.0832 
     15 C15        31.5391    0.1951   -2.9853 C.3       12 UNK         0.0240 
     16 S16        31.2022    1.3792   -4.3206 S.3       12 UNK        -0.2522 
     17 C17        29.4105    1.6642   -4.1455 C.3       12 UNK        -0.0967 
     18 CA         28.6767    1.4528   -5.4949 C.3       5 UNK         0.0660 
     19 N          28.2095    0.0746   -5.6830 N.am      5 UNK        -0.4015 
     20 C          27.9478   -0.4569   -6.8861 C.2       4 UNK         0.4946 
     21 O          28.1308    0.1454   -7.9426 O.2       4 UNK        -0.5353 
     22 CA         27.3293   -1.8662   -6.9396 C.3       4 UNK         0.0277 
     23 CB         28.4217   -2.9422   -6.9639 C.3       4 UNK        -0.1981 
     24 N          26.4080   -2.1538   -5.8417 N.am      4 UNK        -0.4209 
     25 C          25.2879   -1.4729   -5.5690 C.2       3 UNK         0.4942 
     26 O          24.8978   -0.5109   -6.2280 O.2       3 UNK        -0.5208 
     27 CA         24.4848   -1.9180   -4.3341 C.3       3 UNK         0.0250 
     28 CB         24.6444   -3.4216   -4.0194 C.3       3 UNK        -0.1990 
     29 N          24.7556   -1.1340   -3.1206 N.am      3 UNK        -0.4232 
     30 C          25.9374   -0.7240   -2.6332 C.2       2 UNK         0.4993 
     31 O          27.0056   -0.7833   -3.2414 O.2       2 UNK        -0.5286 
     32 CA         25.9566   -0.1925   -1.1911 C.3       2 UNK         0.0209 
     33 CB         24.6255    0.4461   -0.7321 C.3       2 UNK        -0.1931 
     34 N          26.4067   -1.2419   -0.2640 N.am      2 UNK        -0.4546 
     35 C          25.8000   -2.4126   -0.0075 C.2       1 UNK         0.5154 
     36 O          24.7063   -2.7432   -0.4733 O.2       1 UNK        -0.5181 
     37 C          27.5382    2.4754   -5.6796 C.2       5 UNK         0.5014 
     38 O          27.8125    3.5855   -6.1359 O.2       5 UNK        -0.5248 
     39 N          26.2884    2.0996   -5.3663 N.am      6 UNK        -0.4434 
     40 CA         25.1047    2.9287   -5.6234 C.3       6 UNK         0.0363 
     41 CB         23.9113    2.4199   -4.7981 C.3       6 UNK        -0.1936 
     42 C          24.7681    2.9884   -7.1247 C.2       6 UNK         0.5081 
     43 O          24.3811    4.0460   -7.6213 O.2       6 UNK        -0.5248 
     44 N          24.9724    1.8653   -7.8267 N.am      7 UNK        -0.4718 
     45 CA         24.8884    1.7458   -9.2855 C.3       7 UNK         0.0273 
     46 CB         24.7771    0.2559   -9.6493 C.3       7 UNK        -0.1935 
     47 C          26.0770    2.3884  -10.0306 C.2       7 UNK         0.5018 
     48 O          25.9861    2.5699  -11.2454 O.2       7 UNK        -0.5186 
     49 N          27.1575    2.7054   -9.3008 N.am      8 UNK        -0.4240 
     50 CA         28.4348    3.2593   -9.7640 C.3       8 UNK         0.0235 
     51 CB         28.2482    4.6804  -10.3377 C.3       8 UNK        -0.2000 
     52 C          29.1843    2.3074  -10.7174 C.2       8 UNK         0.4941 
     53 O          29.6790    2.7371  -11.7624 O.2       8 UNK        -0.5273 
     54 N          29.2486    1.0244  -10.3387 N.am      9 UNK        -0.4262 
     55 CA         29.9821   -0.0266  -11.0434 C.3       9 UNK         0.0264 
     56 CB         29.5299   -1.3917  -10.5023 C.3       9 UNK        -0.1955 
     57 C          31.5049    0.1226  -10.8832 C.2       9 UNK         0.5031 
     58 O          31.9785    0.7580   -9.9363 O.2       9 UNK        -0.5390 
     59 N          32.2456   -0.5231  -11.7938 N.am      10 UNK        -0.4204 
     60 CA         33.7103   -0.4993  -11.8801 C.3       10 UNK         0.0237 
     61 CB         34.1495   -1.2553  -13.1454 C.3       10 UNK        -0.1985 
     62 C          34.4554   -1.0440  -10.6460 C.2       10 UNK         0.4970 
     63 O          35.6228   -0.6950  -10.4636 O.2       10 UNK        -0.4914 
     64 N          33.7928   -1.8740   -9.8272 N.am      11 UNK        -0.4285 
     65 CA         34.3333   -2.3754   -8.5543 C.3       11 UNK         0.1007 
     66 C          34.4081   -1.3117   -7.4154 C.2       11 UNK         0.5703 
     67 N          33.7822   -0.1461   -7.5467 N.am      11 UNK        -0.7361 
     68 O          35.0584   -1.5482   -6.4003 O.2       11 UNK        -0.4986 
     69 C69        33.6534   -3.7064   -8.1228 C.3       12 UNK        -0.0947 
     70 S70        32.0110   -3.5223   -7.3380 S.3       12 UNK        -0.2240 
     71 C71        32.3920   -4.0167   -5.6235 C.3       12 UNK         0.0194 
     72 H72        23.1562   -3.4930    3.8140 H         1 UNK         0.0906 
     73 H73        23.9081   -5.0479    3.4527 H         1 UNK         0.0906 
     74 H74        24.4606   -4.1023    4.8362 H         1 UNK         0.0906 
     75 H75        25.2756   -4.9003    1.6850 H         1 UNK         0.3140 
     76 H76        27.3054   -2.8530    1.4741 H         1 UNK         0.1085 
     77 H77        26.6185   -4.8928   -0.7137 H         1 UNK         0.0836 
     78 H78        27.4348   -5.3845    0.7388 H         1 UNK         0.0836 
     79 H79        27.6489   -3.2010   -2.4431 H         1 UNK         0.0731 
     80 H80        28.3116   -4.7909   -2.7432 H         1 UNK         0.0731 
     81 H81        30.2191   -4.8976   -4.1946 H         1 UNK         0.1312 
     82 H82        32.7224   -1.4649   -4.7814 H         1 UNK         0.1406 
     83 H83        29.4521   -1.2837   -2.0156 H         1 UNK         0.1631 
     84 H84        32.6089    0.2084   -2.7717 H         1 UNK         0.0717 
     85 H85        31.0440    0.5218   -2.0695 H         1 UNK         0.0717 
     86 H86        28.9899    1.0309   -3.3632 H         1 UNK         0.0934 
     87 H87        29.3041    2.6888   -3.7819 H         1 UNK         0.0934 
     88 H88        29.3826    1.6718   -6.3002 H         1 UNK         0.0739 
     89 H89        27.9775   -0.4499   -4.8421 H         1 UNK         0.3093 
     90 H90        26.7591   -1.9394   -7.8676 H         1 UNK         0.0818 
     91 H91        29.0586   -2.8366   -7.8399 H         1 UNK         0.0819 
     92 H92        27.9995   -3.9466   -6.9965 H         1 UNK         0.0819 
     93 H93        29.0648   -2.8729   -6.0881 H         1 UNK         0.0819 
     94 H94        26.6686   -2.9021   -5.2175 H         1 UNK         0.3041 
     95 H95        23.4363   -1.7467   -4.5829 H         1 UNK         0.0784 
     96 H96        24.4576   -4.0349   -4.9022 H         1 UNK         0.0793 
     97 H97        25.6389   -3.6645   -3.6467 H         1 UNK         0.0793 
     98 H98        23.9306   -3.7351   -3.2571 H         1 UNK         0.0793 
     99 H99        23.9601   -1.0197   -2.5084 H         1 UNK         0.3024 
    100 H100       26.7161    0.5912   -1.1698 H         1 UNK         0.1171 
    101 H101       24.7369    0.9083    0.2489 H         1 UNK         0.0786 
    102 H102       24.3109    1.2317   -1.4202 H         1 UNK         0.0786 
    103 H103       23.8101   -0.2737   -0.6597 H         1 UNK         0.0786 
    104 H104       27.3129   -1.0817    0.1539 H         1 UNK         0.2977 
    105 H105       26.1245    1.1519   -5.0551 H         1 UNK         0.3127 
    106 H106       25.3244    3.9471   -5.2947 H         1 UNK         0.0770 
    107 H107       23.6101    1.4129   -5.0849 H         1 UNK         0.0814 
    108 H108       23.0438    3.0665   -4.9366 H         1 UNK         0.0814 
    109 H109       24.1407    2.4115   -3.7328 H         1 UNK         0.0814 
    110 H110       25.1911    1.0150   -7.3122 H         1 UNK         0.2983 
    111 H111       23.9807    2.2529   -9.6196 H         1 UNK         0.0947 
    112 H112       24.6442    0.1241  -10.7239 H         1 UNK         0.0806 
    113 H113       23.9246   -0.2120   -9.1566 H         1 UNK         0.0806 
    114 H114       25.6738   -0.2940   -9.3622 H         1 UNK         0.0806 
    115 H115       27.1209    2.4725   -8.3182 H         1 UNK         0.3000 
    116 H116       29.0624    3.3469   -8.8755 H         1 UNK         0.0850 
    117 H117       29.2118    5.1384  -10.5638 H         1 UNK         0.0810 
    118 H118       27.7398    5.3306   -9.6257 H         1 UNK         0.0810 
    119 H119       27.6681    4.6736  -11.2609 H         1 UNK         0.0810 
    120 H120       28.8284    0.7563   -9.4478 H         1 UNK         0.3040 
    121 H121       29.7298    0.0368  -12.1041 H         1 UNK         0.0766 
    122 H122       28.4448   -1.4956  -10.5297 H         1 UNK         0.0812 
    123 H123       29.8549   -1.5260   -9.4710 H         1 UNK         0.0812 
    124 H124       29.9500   -2.2113  -11.0863 H         1 UNK         0.0812 
    125 H125       31.7675   -1.0388  -12.5192 H         1 UNK         0.3205 
    126 H126       34.0071    0.5460  -11.9894 H         1 UNK         0.0754 
    127 H127       35.2342   -1.2290  -13.2611 H         1 UNK         0.0769 
    128 H128       33.7214   -0.8106  -14.0441 H         1 UNK         0.0769 
    129 H129       33.8514   -2.3042  -13.1128 H         1 UNK         0.0769 
    130 H130       32.8315   -2.1024  -10.0284 H         1 UNK         0.2981 
    131 H131       35.3748   -2.6351   -8.7546 H         1 UNK         0.0541 
    132 H132       33.8423    0.5304   -6.8034 H         1 UNK         0.3459 
    133 H133       33.2341    0.0621   -8.3732 H         1 UNK         0.3459 
    134 H134       34.3175   -4.2479   -7.4478 H         1 UNK         0.0612 
    135 H135       33.5405   -4.3624   -8.9872 H         1 UNK         0.0612 
    136 H136       32.2471   -5.0932   -5.5225 H         1 UNK         0.0624 
    137 H137       33.4428   -3.8259   -5.4006 H         1 UNK         0.0624 
@<TRIPOS>BOND
     1    1    2 1    
     2    1   72 1    
     3    1   73 1    
     4    1   74 1    
     5    2    3 2    
     6    2    4 am   BACKBONE|DICT|INTERRES
     7    4    5 1    
     8    4   75 1    
     9    5    6 1    
    10    5   35 1    
    11    5   76 1    
    12    6    7 1    
    13    6   77 1    
    14    6   78 1    
    15    7    8 1    
    16    8    9 1    
    17    8   79 1    
    18    8   80 1    
    19    9   10 ar   
    20    9   14 ar   
    21   10   11 ar   
    22   10   81 1    
    23   11   12 ar   
    24   11   71 1    
    25   12   13 ar   
    26   12   82 1    
    27   13   14 ar   
    28   13   15 1    
    29   14   83 1    
    30   15   16 1    
    31   15   84 1    
    32   15   85 1    
    33   16   17 1    
    34   17   18 1    
    35   17   86 1    
    36   17   87 1    
    37   18   19 1    
    38   18   37 1    
    39   18   88 1    
    40   19   20 am   BACKBONE|DICT|INTERRES
    41   19   89 1    
    42   20   21 2    
    43   20   22 1    
    44   22   23 1    
    45   22   24 1    
    46   22   90 1    
    47   23   91 1    
    48   23   92 1    
    49   23   93 1    
    50   24   25 am   BACKBONE|DICT|INTERRES
    51   24   94 1    
    52   25   26 2    
    53   25   27 1    
    54   27   28 1    
    55   27   29 1    
    56   27   95 1    
    57   28   96 1    
    58   28   97 1    
    59   28   98 1    
    60   29   30 am   BACKBONE|DICT|INTERRES
    61   29   99 1    
    62   30   31 2    
    63   30   32 1    
    64   32   33 1    
    65   32   34 1    
    66   32  100 1    
    67   33  101 1    
    68   33  102 1    
    69   33  103 1    
    70   34   35 am   BACKBONE|DICT|INTERRES
    71   34  104 1    
    72   35   36 2    
    73   37   38 2    
    74   37   39 am   BACKBONE|DICT|INTERRES
    75   39   40 1    
    76   39  105 1    
    77   40   41 1    
    78   40   42 1    
    79   40  106 1    
    80   41  107 1    
    81   41  108 1    
    82   41  109 1    
    83   42   43 2    
    84   42   44 am   BACKBONE|DICT|INTERRES
    85   44   45 1    
    86   44  110 1    
    87   45   46 1    
    88   45   47 1    
    89   45  111 1    
    90   46  112 1    
    91   46  113 1    
    92   46  114 1    
    93   47   48 2    
    94   47   49 am   BACKBONE|DICT|INTERRES
    95   49   50 1    
    96   49  115 1    
    97   50   51 1    
    98   50   52 1    
    99   50  116 1    
   100   51  117 1    
   101   51  118 1    
   102   51  119 1    
   103   52   53 2    
   104   52   54 am   BACKBONE|DICT|INTERRES
   105   54   55 1    
   106   54  120 1    
   107   55   56 1    
   108   55   57 1    
   109   55  121 1    
   110   56  122 1    
   111   56  123 1    
   112   56  124 1    
   113   57   58 2    
   114   57   59 am   BACKBONE|DICT|INTERRES
   115   59   60 1    
   116   59  125 1    
   117   60   61 1    
   118   60   62 1    
   119   60  126 1    
   120   61  127 1    
   121   61  128 1    
   122   61  129 1    
   123   62   63 2    
   124   62   64 am   BACKBONE|DICT|INTERRES
   125   64   65 1    
   126   64  130 1    
   127   65   66 1    
   128   65   69 1    
   129   65  131 1    
   130   66   67 am   BACKBONE|DICT|INTERRES
   131   66   68 2    
   132   67  132 1    
   133   67  133 1    
   134   69   70 1    
   135   69  134 1    
   136   69  135 1    
   137   70   71 1    
   138   71  136 1    
   139   71  137 1    
@<TRIPOS>SUBSTRUCTURE
     1 UNK         1 GROUP             0       ****    0 ROOT    
