@<TRIPOS>MOLECULE
3R137
137   139    1
SMALL
USER_CHARGES


@<TRIPOS>ATOM
      1 CA         24.0461   -7.5810   -1.8662 C.3       0 UNK        -0.2020 
      2 C          24.5475   -6.3482   -1.1290 C.2       0 UNK         0.4855 
      3 O          24.0169   -6.0096   -0.0705 O.2       0 UNK        -0.5197 
      4 N          25.5702   -5.6781   -1.6750 N.am      1 UNK        -0.4892 
      5 CA         26.1232   -4.4282   -1.1472 C.3       1 UNK         0.0835 
      6 C6         27.5286   -4.1534   -1.7344 C.3       12 UNK        -0.0855 
      7 S7         28.4738   -2.9037   -0.7929 S.3       12 UNK        -0.2931 
      8 C8         30.1350   -3.6595   -0.7100 C.3       12 UNK         0.0378 
      9 C9         30.9152   -3.4712   -2.0062 C.ar      12 UNK        -0.0802 
     10 C10        31.9244   -2.5045   -2.0949 C.ar      12 UNK        -0.0944 
     11 C11        32.6310   -2.3215   -3.2893 C.ar      12 UNK        -0.0787 
     12 C12        32.3186   -3.1088   -4.4006 C.ar      12 UNK        -0.0862 
     13 C13        31.2941   -4.0561   -4.3313 C.ar      12 UNK        -0.0733 
     14 C14        30.6217   -4.2568   -3.1249 C.ar      12 UNK        -0.0832 
     15 C15        30.8480   -4.7977   -5.5822 C.3       12 UNK         0.0240 
     16 S16        29.2762   -4.1184   -6.2169 S.3       12 UNK        -0.2522 
     17 C17        29.6896   -2.3450   -6.3266 C.3       12 UNK        -0.0967 
     18 CA         28.5954   -1.4988   -7.0086 C.3       5 UNK         0.0660 
     19 N          27.3272   -1.5415   -6.2776 N.am      5 UNK        -0.4015 
     20 C          26.1592   -1.1018   -6.7629 C.2       4 UNK         0.4946 
     21 O          26.0197   -0.6458   -7.8976 O.2       4 UNK        -0.5353 
     22 CA         24.9651   -1.1116   -5.7935 C.3       4 UNK         0.0277 
     23 CB         24.2974   -2.4951   -5.7721 C.3       4 UNK        -0.1981 
     24 N          25.3234   -0.7060   -4.4268 N.am      4 UNK        -0.4209 
     25 C          25.8275    0.4985   -4.1069 C.2       3 UNK         0.4942 
     26 O          26.0682    1.3623   -4.9515 O.2       3 UNK        -0.5208 
     27 CA         26.1799    0.7857   -2.6312 C.3       3 UNK         0.0250 
     28 CB         25.9426    2.2624   -2.2470 C.3       3 UNK        -0.1990 
     29 N          25.5415   -0.1165   -1.6667 N.am      3 UNK        -0.4232 
     30 C          24.2300   -0.2560   -1.4164 C.2       2 UNK         0.4993 
     31 O          23.3516    0.4291   -1.9426 O.2       2 UNK        -0.5286 
     32 CA         23.8410   -1.3744   -0.4256 C.3       2 UNK         0.0209 
     33 CB         22.4033   -1.8884   -0.6568 C.3       2 UNK        -0.1931 
     34 N          24.7849   -2.5054   -0.3994 N.am      2 UNK        -0.4546 
     35 C          25.1492   -3.2713   -1.4399 C.2       1 UNK         0.5154 
     36 O          24.7781   -3.0780   -2.6006 O.2       1 UNK        -0.5181 
     37 C          29.1090   -0.0589   -7.2155 C.2       5 UNK         0.5014 
     38 O          29.8249    0.1778   -8.1882 O.2       5 UNK        -0.5248 
     39 N          28.7674    0.8754   -6.3155 N.am      6 UNK        -0.4434 
     40 CA         29.1157    2.2926   -6.4476 C.3       6 UNK         0.0363 
     41 CB         29.0623    2.9896   -5.0792 C.3       6 UNK        -0.1936 
     42 C          28.2013    2.9889   -7.4638 C.2       6 UNK         0.5081 
     43 O          28.6930    3.7680   -8.2782 O.2       6 UNK        -0.5248 
     44 N          26.9045    2.6454   -7.4522 N.am      7 UNK        -0.4718 
     45 CA         25.9223    3.0672   -8.4575 C.3       7 UNK         0.0273 
     46 CB         24.5176    2.6172   -8.0265 C.3       7 UNK        -0.1935 
     47 C          26.2594    2.5517   -9.8698 C.2       7 UNK         0.5018 
     48 O          26.0832    3.2866  -10.8416 O.2       7 UNK        -0.5186 
     49 N          26.7873    1.3217   -9.9496 N.am      8 UNK        -0.4240 
     50 CA         27.3343    0.7141  -11.1671 C.3       8 UNK         0.0235 
     51 CB         27.4077   -0.8094  -10.9701 C.3       8 UNK        -0.2000 
     52 C          28.7164    1.2639  -11.5803 C.2       8 UNK         0.4941 
     53 O          29.1866    0.9163  -12.6641 O.2       8 UNK        -0.5273 
     54 N          29.3492    2.0814  -10.7230 N.am      9 UNK        -0.4262 
     55 CA         30.6802    2.6860  -10.8700 C.3       9 UNK         0.0264 
     56 CB         30.7140    3.6700  -12.0591 C.3       9 UNK        -0.1955 
     57 C          31.8367    1.6647  -10.9009 C.2       9 UNK         0.5031 
     58 O          32.8880    1.9510  -11.4778 O.2       9 UNK        -0.5390 
     59 N          31.6387    0.5047  -10.2625 N.am      10 UNK        -0.4204 
     60 CA         32.6609   -0.5190  -10.0475 C.3       10 UNK         0.0237 
     61 CB         31.9986   -1.9066  -10.0055 C.3       10 UNK        -0.1985 
     62 C          33.4418   -0.2421   -8.7537 C.2       10 UNK         0.4970 
     63 O          34.6673   -0.3612   -8.7504 O.2       10 UNK        -0.4914 
     64 N          32.7222    0.1369   -7.6894 N.am      11 UNK        -0.4285 
     65 CA         33.2904    0.6117   -6.4221 C.3       11 UNK         0.1007 
     66 C          33.6924    2.1066   -6.5357 C.2       11 UNK         0.5703 
     67 N          34.8486    2.4866   -6.0096 N.am      11 UNK        -0.7361 
     68 O          32.9508    2.9260   -7.0753 O.2       11 UNK        -0.4986 
     69 C69        32.3039    0.3554   -5.2536 C.3       12 UNK        -0.0947 
     70 S70        33.0773    0.4174   -3.6014 S.3       12 UNK        -0.2240 
     71 C71        33.7298   -1.2719   -3.3878 C.3       12 UNK         0.0194 
     72 H72        24.6130   -7.7713   -2.7774 H         1 UNK         0.0906 
     73 H73        24.1276   -8.4597   -1.2268 H         1 UNK         0.0906 
     74 H74        22.9987   -7.4542   -2.1392 H         1 UNK         0.0906 
     75 H75        25.9381   -5.9789   -2.5665 H         1 UNK         0.3140 
     76 H76        26.2226   -4.5444   -0.0651 H         1 UNK         0.1085 
     77 H77        28.0905   -5.0873   -1.7148 H         1 UNK         0.0836 
     78 H78        27.4766   -3.8533   -2.7834 H         1 UNK         0.0836 
     79 H79        30.0563   -4.7204   -0.4681 H         1 UNK         0.0731 
     80 H80        30.6778   -3.2043    0.1199 H         1 UNK         0.0731 
     81 H81        32.1572   -1.8870   -1.2380 H         1 UNK         0.1312 
     82 H82        32.8433   -2.9521   -5.3333 H         1 UNK         0.1406 
     83 H83        29.8383   -4.9982   -3.0812 H         1 UNK         0.1631 
     84 H84        30.7191   -5.8578   -5.3593 H         1 UNK         0.0717 
     85 H85        31.6081   -4.7353   -6.3626 H         1 UNK         0.0717 
     86 H86        29.8677   -1.9680   -5.3177 H         1 UNK         0.0934 
     87 H87        30.6360   -2.2594   -6.8643 H         1 UNK         0.0934 
     88 H88        28.4178   -1.9191   -8.0002 H         1 UNK         0.0739 
     89 H89        27.3526   -1.9280   -5.3458 H         1 UNK         0.3093 
     90 H90        24.2364   -0.3890   -6.1670 H         1 UNK         0.0818 
     91 H91        23.9898   -2.7962   -6.7744 H         1 UNK         0.0819 
     92 H92        24.9705   -3.2644   -5.3913 H         1 UNK         0.0819 
     93 H93        23.4052   -2.4944   -5.1455 H         1 UNK         0.0819 
     94 H94        25.1417   -1.3819   -3.6906 H         1 UNK         0.3041 
     95 H95        27.2511    0.5973   -2.5460 H         1 UNK         0.0784 
     96 H96        26.2051    2.4491   -1.2058 H         1 UNK         0.0793 
     97 H97        26.5502    2.9323   -2.8550 H         1 UNK         0.0793 
     98 H98        24.9023    2.5562   -2.3891 H         1 UNK         0.0793 
     99 H99        26.1693   -0.7419   -1.1797 H         1 UNK         0.3024 
    100 H100       23.8737   -0.9177    0.5652 H         1 UNK         0.1171 
    101 H101       22.1404   -2.6674    0.0590 H         1 UNK         0.0786 
    102 H102       21.6742   -1.0856   -0.5407 H         1 UNK         0.0786 
    103 H103       22.2782   -2.2992   -1.6594 H         1 UNK         0.0786 
    104 H104       25.1661   -2.7287    0.5104 H         1 UNK         0.2977 
    105 H105       28.1227    0.6370   -5.5750 H         1 UNK         0.3127 
    106 H106       30.1403    2.3685   -6.8190 H         1 UNK         0.0770 
    107 H107       28.0477    3.0429   -4.6877 H         1 UNK         0.0814 
    108 H108       29.4305    4.0134   -5.1563 H         1 UNK         0.0814 
    109 H109       29.6816    2.4778   -4.3427 H         1 UNK         0.0814 
    110 H110       26.5700    2.0409   -6.7059 H         1 UNK         0.2983 
    111 H111       25.9357    4.1586   -8.4946 H         1 UNK         0.0947 
    112 H112       23.7634    2.9637   -8.7343 H         1 UNK         0.0806 
    113 H113       24.2551    3.0203   -7.0481 H         1 UNK         0.0806 
    114 H114       24.4385    1.5314   -7.9716 H         1 UNK         0.0806 
    115 H115       26.7945    0.7490   -9.1104 H         1 UNK         0.3000 
    116 H116       26.6455    0.9193  -11.9893 H         1 UNK         0.0850 
    117 H117       27.7205   -1.3086  -11.8881 H         1 UNK         0.0810 
    118 H118       26.4385   -1.2233  -10.6908 H         1 UNK         0.0810 
    119 H119       28.1246   -1.0783  -10.1947 H         1 UNK         0.0810 
    120 H120       28.8728    2.3220   -9.8618 H         1 UNK         0.3040 
    121 H121       30.8375    3.2711   -9.9627 H         1 UNK         0.0766 
    122 H122       30.6382    3.1526  -13.0158 H         1 UNK         0.0812 
    123 H123       31.6448    4.2382  -12.0710 H         1 UNK         0.0812 
    124 H124       29.8980    4.3902  -12.0001 H         1 UNK         0.0812 
    125 H125       30.7686    0.3866   -9.7469 H         1 UNK         0.3205 
    126 H126       33.3689   -0.5082  -10.8791 H         1 UNK         0.0754 
    127 H127       32.7401   -2.6885   -9.8366 H         1 UNK         0.0769 
    128 H128       31.4993   -2.1316  -10.9482 H         1 UNK         0.0769 
    129 H129       31.2558   -1.9826   -9.2114 H         1 UNK         0.0769 
    130 H130       31.7212    0.2522   -7.8031 H         1 UNK         0.2981 
    131 H131       34.1916    0.0266   -6.2282 H         1 UNK         0.0541 
    132 H132       35.1170    3.4563   -6.0666 H         1 UNK         0.3459 
    133 H133       35.4523    1.8254   -5.5465 H         1 UNK         0.3459 
    134 H134       31.8294   -0.6157   -5.3698 H         1 UNK         0.0612 
    135 H135       31.4895    1.0788   -5.2708 H         1 UNK         0.0612 
    136 H136       34.4097   -1.5011   -4.2097 H         1 UNK         0.0624 
    137 H137       34.3340   -1.2987   -2.4799 H         1 UNK         0.0624 
@<TRIPOS>BOND
     1    1    2 1    
     2    1   72 1    
     3    1   73 1    
     4    1   74 1    
     5    2    3 2    
     6    2    4 am   BACKBONE|DICT|INTERRES
     7    4    5 1    
     8    4   75 1    
     9    5    6 1    
    10    5   35 1    
    11    5   76 1    
    12    6    7 1    
    13    6   77 1    
    14    6   78 1    
    15    7    8 1    
    16    8    9 1    
    17    8   79 1    
    18    8   80 1    
    19    9   10 ar   
    20    9   14 ar   
    21   10   11 ar   
    22   10   81 1    
    23   11   12 ar   
    24   11   71 1    
    25   12   13 ar   
    26   12   82 1    
    27   13   14 ar   
    28   13   15 1    
    29   14   83 1    
    30   15   16 1    
    31   15   84 1    
    32   15   85 1    
    33   16   17 1    
    34   17   18 1    
    35   17   86 1    
    36   17   87 1    
    37   18   19 1    
    38   18   37 1    
    39   18   88 1    
    40   19   20 am   BACKBONE|DICT|INTERRES
    41   19   89 1    
    42   20   21 2    
    43   20   22 1    
    44   22   23 1    
    45   22   24 1    
    46   22   90 1    
    47   23   91 1    
    48   23   92 1    
    49   23   93 1    
    50   24   25 am   BACKBONE|DICT|INTERRES
    51   24   94 1    
    52   25   26 2    
    53   25   27 1    
    54   27   28 1    
    55   27   29 1    
    56   27   95 1    
    57   28   96 1    
    58   28   97 1    
    59   28   98 1    
    60   29   30 am   BACKBONE|DICT|INTERRES
    61   29   99 1    
    62   30   31 2    
    63   30   32 1    
    64   32   33 1    
    65   32   34 1    
    66   32  100 1    
    67   33  101 1    
    68   33  102 1    
    69   33  103 1    
    70   34   35 am   BACKBONE|DICT|INTERRES
    71   34  104 1    
    72   35   36 2    
    73   37   38 2    
    74   37   39 am   BACKBONE|DICT|INTERRES
    75   39   40 1    
    76   39  105 1    
    77   40   41 1    
    78   40   42 1    
    79   40  106 1    
    80   41  107 1    
    81   41  108 1    
    82   41  109 1    
    83   42   43 2    
    84   42   44 am   BACKBONE|DICT|INTERRES
    85   44   45 1    
    86   44  110 1    
    87   45   46 1    
    88   45   47 1    
    89   45  111 1    
    90   46  112 1    
    91   46  113 1    
    92   46  114 1    
    93   47   48 2    
    94   47   49 am   BACKBONE|DICT|INTERRES
    95   49   50 1    
    96   49  115 1    
    97   50   51 1    
    98   50   52 1    
    99   50  116 1    
   100   51  117 1    
   101   51  118 1    
   102   51  119 1    
   103   52   53 2    
   104   52   54 am   BACKBONE|DICT|INTERRES
   105   54   55 1    
   106   54  120 1    
   107   55   56 1    
   108   55   57 1    
   109   55  121 1    
   110   56  122 1    
   111   56  123 1    
   112   56  124 1    
   113   57   58 2    
   114   57   59 am   BACKBONE|DICT|INTERRES
   115   59   60 1    
   116   59  125 1    
   117   60   61 1    
   118   60   62 1    
   119   60  126 1    
   120   61  127 1    
   121   61  128 1    
   122   61  129 1    
   123   62   63 2    
   124   62   64 am   BACKBONE|DICT|INTERRES
   125   64   65 1    
   126   64  130 1    
   127   65   66 1    
   128   65   69 1    
   129   65  131 1    
   130   66   67 am   BACKBONE|DICT|INTERRES
   131   66   68 2    
   132   67  132 1    
   133   67  133 1    
   134   69   70 1    
   135   69  134 1    
   136   69  135 1    
   137   70   71 1    
   138   71  136 1    
   139   71  137 1    
@<TRIPOS>SUBSTRUCTURE
     1 UNK         1 GROUP             0       ****    0 ROOT    
