@<TRIPOS>MOLECULE
3R137
137   139    1
SMALL
USER_CHARGES


@<TRIPOS>ATOM
      1 CA         24.2213   -5.7592   -3.8576 C.3       0 UNK        -0.2020 
      2 C          24.8284   -4.8965   -2.7621 C.2       0 UNK         0.4855 
      3 O          24.1039   -4.1732   -2.0780 O.2       0 UNK        -0.5197 
      4 N          26.1567   -4.9584   -2.6016 N.am      1 UNK        -0.4892 
      5 CA         26.9476   -4.1954   -1.6290 C.3       1 UNK         0.0835 
      6 C6         28.4265   -4.6454   -1.6762 C.3       12 UNK        -0.0855 
      7 S7         29.4309   -3.9691   -0.3118 S.3       12 UNK        -0.2931 
      8 C8         31.0561   -3.7988   -1.1175 C.3       12 UNK         0.0378 
      9 C9         31.0686   -2.7059   -2.1784 C.ar      12 UNK        -0.0802 
     10 C10        31.1063   -3.0356   -3.5368 C.ar      12 UNK        -0.0944 
     11 C11        31.1563   -2.0333   -4.5097 C.ar      12 UNK        -0.0787 
     12 C12        31.1762   -0.6932   -4.1153 C.ar      12 UNK        -0.0862 
     13 C13        31.1020   -0.3470   -2.7613 C.ar      12 UNK        -0.0733 
     14 C14        31.0599   -1.3610   -1.7990 C.ar      12 UNK        -0.0832 
     15 C15        31.0612    1.1125   -2.3131 C.3       12 UNK         0.0240 
     16 S16        30.0029    2.1959   -3.3369 S.3       12 UNK        -0.2522 
     17 C17        28.4414    1.2576   -3.4627 C.3       12 UNK        -0.0967 
     18 CA         28.0961    0.9392   -4.9430 C.3       5 UNK         0.0660 
     19 N          27.4592   -0.3726   -5.0958 N.am      5 UNK        -0.4015 
     20 C          27.1490   -0.9488   -6.2670 C.2       4 UNK         0.4946 
     21 O          27.4344   -0.4749   -7.3648 O.2       4 UNK        -0.5353 
     22 CA         26.3090   -2.2336   -6.2077 C.3       4 UNK         0.0277 
     23 CB         27.1884   -3.4708   -5.9600 C.3       4 UNK        -0.1981 
     24 N          25.2608   -2.1291   -5.1894 N.am      4 UNK        -0.4209 
     25 C          24.1728   -1.3532   -5.3187 C.2       3 UNK         0.4942 
     26 O          23.8964   -0.7366   -6.3467 O.2       3 UNK        -0.5208 
     27 CA         23.2624   -1.1952   -4.0886 C.3       3 UNK         0.0250 
     28 CB         22.1295   -2.2328   -4.1057 C.3       3 UNK        -0.1990 
     29 N          24.0021   -1.2750   -2.8260 N.am      3 UNK        -0.4232 
     30 C          24.8335   -0.3145   -2.3920 C.2       2 UNK         0.4993 
     31 O          25.0171    0.7452   -2.9898 O.2       2 UNK        -0.5286 
     32 CA         25.6461   -0.6004   -1.1161 C.3       2 UNK         0.0209 
     33 CB         24.8680   -0.1524    0.1306 C.3       2 UNK        -0.1931 
     34 N          26.0335   -2.0074   -0.9751 N.am      2 UNK        -0.4546 
     35 C          26.7809   -2.6784   -1.8623 C.2       1 UNK         0.5154 
     36 O          27.2576   -2.1590   -2.8730 O.2       1 UNK        -0.5181 
     37 C          27.2657    2.0712   -5.5852 C.2       5 UNK         0.5014 
     38 O          27.8207    2.9022   -6.3037 O.2       5 UNK        -0.5248 
     39 N          25.9462    2.0662   -5.3437 N.am      6 UNK        -0.4434 
     40 CA         24.9892    2.9924   -5.9535 C.3       6 UNK         0.0363 
     41 CB         23.6092    2.8134   -5.3015 C.3       6 UNK        -0.1936 
     42 C          24.8889    2.8447   -7.4827 C.2       6 UNK         0.5081 
     43 O          24.7237    3.8526   -8.1708 O.2       6 UNK        -0.5248 
     44 N          24.9923    1.6067   -7.9875 N.am      7 UNK        -0.4718 
     45 CA         25.0091    1.2982   -9.4177 C.3       7 UNK         0.0273 
     46 CB         24.7427   -0.2000   -9.6387 C.3       7 UNK        -0.1935 
     47 C          26.3167    1.7389  -10.0966 C.2       7 UNK         0.5018 
     48 O          26.2563    2.4436  -11.1057 O.2       7 UNK        -0.5186 
     49 N          27.4658    1.3320   -9.5402 N.am      8 UNK        -0.4240 
     50 CA         28.7945    1.6576  -10.0531 C.3       8 UNK         0.0235 
     51 CB         29.1047    0.8350  -11.3218 C.3       8 UNK        -0.2000 
     52 C          29.8452    1.4119   -8.9649 C.2       8 UNK         0.4941 
     53 O          30.2795    0.2728   -8.7786 O.2       8 UNK        -0.5273 
     54 N          30.2951    2.4847   -8.3015 N.am      9 UNK        -0.4262 
     55 CA         31.3657    2.4823   -7.2946 C.3       9 UNK         0.0264 
     56 CB         31.2616    3.7672   -6.4512 C.3       9 UNK        -0.1955 
     57 C          32.7734    2.2997   -7.9080 C.2       9 UNK         0.5031 
     58 O          33.6917    3.0570   -7.5873 O.2       9 UNK        -0.5390 
     59 N          32.9152    1.3097   -8.7939 N.am      10 UNK        -0.4204 
     60 CA         34.1263    0.9866   -9.5471 C.3       10 UNK         0.0237 
     61 CB         34.2598    1.9271  -10.7631 C.3       10 UNK        -0.1985 
     62 C          34.1268   -0.5013   -9.9346 C.2       10 UNK         0.4970 
     63 O          34.5397   -0.8497  -11.0419 O.2       10 UNK        -0.4914 
     64 N          33.6456   -1.3538   -9.0213 N.am      11 UNK        -0.4285 
     65 CA         33.5607   -2.8130   -9.1887 C.3       11 UNK         0.1007 
     66 C          34.9196   -3.5729   -9.1199 C.2       11 UNK         0.5703 
     67 N          36.0171   -2.9445   -8.7141 N.am      11 UNK        -0.7361 
     68 O          34.9801   -4.7531   -9.4572 O.2       11 UNK        -0.4986 
     69 C69        32.4948   -3.4283   -8.2436 C.3       12 UNK        -0.0947 
     70 S70        32.7896   -3.0680   -6.4770 S.3       12 UNK        -0.2240 
     71 C71        31.1727   -2.4006   -5.9847 C.3       12 UNK         0.0194 
     72 H72        24.9114   -6.5329   -4.1936 H         1 UNK         0.0906 
     73 H73        23.3188   -6.2495   -3.4935 H         1 UNK         0.0906 
     74 H74        23.9538   -5.1453   -4.7170 H         1 UNK         0.0906 
     75 H75        26.6908   -5.5643   -3.2081 H         1 UNK         0.3140 
     76 H76        26.5560   -4.4378   -0.6386 H         1 UNK         0.1085 
     77 H77        28.8665   -4.3839   -2.6391 H         1 UNK         0.0836 
     78 H78        28.4861   -5.7329   -1.6075 H         1 UNK         0.0836 
     79 H79        31.3486   -4.7591   -1.5454 H         1 UNK         0.0731 
     80 H80        31.8027   -3.5667   -0.3566 H         1 UNK         0.0731 
     81 H81        31.1044   -4.0733   -3.8415 H         1 UNK         0.1312 
     82 H82        31.2238    0.0829   -4.8644 H         1 UNK         0.1406 
     83 H83        31.0153   -1.1080   -0.7482 H         1 UNK         0.1631 
     84 H84        32.0769    1.5094   -2.3193 H         1 UNK         0.0717 
     85 H85        30.7096    1.1818   -1.2824 H         1 UNK         0.0717 
     86 H86        28.5351    0.3368   -2.8858 H         1 UNK         0.0934 
     87 H87        27.6468    1.8187   -2.9665 H         1 UNK         0.0934 
     88 H88        29.0227    0.8700   -5.5162 H         1 UNK         0.0739 
     89 H89        27.2551   -0.8861   -4.2416 H         1 UNK         0.3093 
     90 H90        25.8248   -2.3608   -7.1784 H         1 UNK         0.0818 
     91 H91        27.7705   -3.3914   -5.0424 H         1 UNK         0.0819 
     92 H92        26.5894   -4.3794   -5.9024 H         1 UNK         0.0819 
     93 H93        27.8983   -3.6038   -6.7773 H         1 UNK         0.0819 
     94 H94        25.4593   -2.5421   -4.2892 H         1 UNK         0.3041 
     95 H95        22.8041   -0.2057   -4.1460 H         1 UNK         0.0784 
     96 H96        21.5334   -2.1406   -5.0147 H         1 UNK         0.0793 
     97 H97        22.5083   -3.2533   -4.0696 H         1 UNK         0.0793 
     98 H98        21.4542   -2.0964   -3.2609 H         1 UNK         0.0793 
     99 H99        23.9364   -2.1462   -2.3075 H         1 UNK         0.3024 
    100 H100       26.5634   -0.0108   -1.1783 H         1 UNK         0.1171 
    101 H101       25.4684   -0.2616    1.0340 H         1 UNK         0.0786 
    102 H102       24.5858    0.8990    0.0568 H         1 UNK         0.0786 
    103 H103       23.9508   -0.7276    0.2638 H         1 UNK         0.0786 
    104 H104       25.6391   -2.5098   -0.1924 H         1 UNK         0.2977 
    105 H105       25.5760    1.4094   -4.6597 H         1 UNK         0.3127 
    106 H106       25.3354    4.0064   -5.7427 H         1 UNK         0.0770 
    107 H107       23.2033    1.8187   -5.4860 H         1 UNK         0.0814 
    108 H108       22.8946    3.5351   -5.6992 H         1 UNK         0.0814 
    109 H109       23.6557    2.9627   -4.2226 H         1 UNK         0.0814 
    110 H110       25.0735    0.8241   -7.3490 H         1 UNK         0.2983 
    111 H111       24.1927    1.8510   -9.8881 H         1 UNK         0.0947 
    112 H112       24.7149   -0.4370  -10.7030 H         1 UNK         0.0806 
    113 H113       23.7835   -0.4978   -9.2145 H         1 UNK         0.0806 
    114 H114       25.5139   -0.8235   -9.1871 H         1 UNK         0.0806 
    115 H115       27.4420    0.7408   -8.7069 H         1 UNK         0.3000 
    116 H116       28.8180    2.7170  -10.3178 H         1 UNK         0.0850 
    117 H117       28.4355    1.0931  -12.1424 H         1 UNK         0.0810 
    118 H118       30.1227    1.0189  -11.6677 H         1 UNK         0.0810 
    119 H119       29.0103   -0.2362  -11.1386 H         1 UNK         0.0810 
    120 H120       29.8841    3.3844   -8.5063 H         1 UNK         0.3040 
    121 H121       31.1989    1.6356   -6.6272 H         1 UNK         0.0766 
    122 H122       30.2785    3.8653   -5.9921 H         1 UNK         0.0812 
    123 H123       31.4425    4.6601   -7.0507 H         1 UNK         0.0812 
    124 H124       31.9908    3.7631   -5.6399 H         1 UNK         0.0812 
    125 H125       32.0951    0.7321   -8.9770 H         1 UNK         0.3205 
    126 H126       34.9931    1.1350   -8.8998 H         1 UNK         0.0754 
    127 H127       35.1760    1.7249  -11.3194 H         1 UNK         0.0769 
    128 H128       34.2971    2.9725  -10.4562 H         1 UNK         0.0769 
    129 H129       33.4231    1.8103  -11.4528 H         1 UNK         0.0769 
    130 H130       33.3542   -1.0022   -8.1214 H         1 UNK         0.2981 
    131 H131       33.2005   -2.9864  -10.2047 H         1 UNK         0.0541 
    132 H132       35.9789   -1.9794   -8.4305 H         1 UNK         0.3459 
    133 H133       36.8897   -3.4474   -8.6810 H         1 UNK         0.3459 
    134 H134       32.4364   -4.5106   -8.3723 H         1 UNK         0.0612 
    135 H135       31.5112   -3.0495   -8.5261 H         1 UNK         0.0612 
    136 H136       30.3993   -3.1444   -6.1816 H         1 UNK         0.0624 
    137 H137       30.9334   -1.5325   -6.6019 H         1 UNK         0.0624 
@<TRIPOS>BOND
     1    1    2 1    
     2    1   72 1    
     3    1   73 1    
     4    1   74 1    
     5    2    3 2    
     6    2    4 am   BACKBONE|DICT|INTERRES
     7    4    5 1    
     8    4   75 1    
     9    5    6 1    
    10    5   35 1    
    11    5   76 1    
    12    6    7 1    
    13    6   77 1    
    14    6   78 1    
    15    7    8 1    
    16    8    9 1    
    17    8   79 1    
    18    8   80 1    
    19    9   10 ar   
    20    9   14 ar   
    21   10   11 ar   
    22   10   81 1    
    23   11   12 ar   
    24   11   71 1    
    25   12   13 ar   
    26   12   82 1    
    27   13   14 ar   
    28   13   15 1    
    29   14   83 1    
    30   15   16 1    
    31   15   84 1    
    32   15   85 1    
    33   16   17 1    
    34   17   18 1    
    35   17   86 1    
    36   17   87 1    
    37   18   19 1    
    38   18   37 1    
    39   18   88 1    
    40   19   20 am   BACKBONE|DICT|INTERRES
    41   19   89 1    
    42   20   21 2    
    43   20   22 1    
    44   22   23 1    
    45   22   24 1    
    46   22   90 1    
    47   23   91 1    
    48   23   92 1    
    49   23   93 1    
    50   24   25 am   BACKBONE|DICT|INTERRES
    51   24   94 1    
    52   25   26 2    
    53   25   27 1    
    54   27   28 1    
    55   27   29 1    
    56   27   95 1    
    57   28   96 1    
    58   28   97 1    
    59   28   98 1    
    60   29   30 am   BACKBONE|DICT|INTERRES
    61   29   99 1    
    62   30   31 2    
    63   30   32 1    
    64   32   33 1    
    65   32   34 1    
    66   32  100 1    
    67   33  101 1    
    68   33  102 1    
    69   33  103 1    
    70   34   35 am   BACKBONE|DICT|INTERRES
    71   34  104 1    
    72   35   36 2    
    73   37   38 2    
    74   37   39 am   BACKBONE|DICT|INTERRES
    75   39   40 1    
    76   39  105 1    
    77   40   41 1    
    78   40   42 1    
    79   40  106 1    
    80   41  107 1    
    81   41  108 1    
    82   41  109 1    
    83   42   43 2    
    84   42   44 am   BACKBONE|DICT|INTERRES
    85   44   45 1    
    86   44  110 1    
    87   45   46 1    
    88   45   47 1    
    89   45  111 1    
    90   46  112 1    
    91   46  113 1    
    92   46  114 1    
    93   47   48 2    
    94   47   49 am   BACKBONE|DICT|INTERRES
    95   49   50 1    
    96   49  115 1    
    97   50   51 1    
    98   50   52 1    
    99   50  116 1    
   100   51  117 1    
   101   51  118 1    
   102   51  119 1    
   103   52   53 2    
   104   52   54 am   BACKBONE|DICT|INTERRES
   105   54   55 1    
   106   54  120 1    
   107   55   56 1    
   108   55   57 1    
   109   55  121 1    
   110   56  122 1    
   111   56  123 1    
   112   56  124 1    
   113   57   58 2    
   114   57   59 am   BACKBONE|DICT|INTERRES
   115   59   60 1    
   116   59  125 1    
   117   60   61 1    
   118   60   62 1    
   119   60  126 1    
   120   61  127 1    
   121   61  128 1    
   122   61  129 1    
   123   62   63 2    
   124   62   64 am   BACKBONE|DICT|INTERRES
   125   64   65 1    
   126   64  130 1    
   127   65   66 1    
   128   65   69 1    
   129   65  131 1    
   130   66   67 am   BACKBONE|DICT|INTERRES
   131   66   68 2    
   132   67  132 1    
   133   67  133 1    
   134   69   70 1    
   135   69  134 1    
   136   69  135 1    
   137   70   71 1    
   138   71  136 1    
   139   71  137 1    
@<TRIPOS>SUBSTRUCTURE
     1 UNK         1 GROUP             0       ****    0 ROOT    
