@<TRIPOS>MOLECULE
3R137
137   139    1
SMALL
USER_CHARGES


@<TRIPOS>ATOM
      1 CA         31.4755   -3.1709   -1.7211 C.3       0 UNK        -0.2020 
      2 C          30.1744   -2.9068   -0.9820 C.2       0 UNK         0.4855 
      3 O          29.7977   -3.6857   -0.1062 O.2       0 UNK        -0.5197 
      4 N          29.4833   -1.8106   -1.3252 N.am      1 UNK        -0.4892 
      5 CA         28.2159   -1.4024   -0.7031 C.3       1 UNK         0.0835 
      6 C6         27.9600    0.1194   -0.8492 C.3       12 UNK        -0.0855 
      7 S7         27.5385    0.6937   -2.5312 S.3       12 UNK        -0.2931 
      8 C8         29.1116    1.4043   -3.1301 C.3       12 UNK         0.0378 
      9 C9         30.0659    0.3628   -3.7042 C.ar      12 UNK        -0.0802 
     10 C10        31.4365    0.4608   -3.4541 C.ar      12 UNK        -0.0944 
     11 C11        32.3245   -0.4742   -3.9923 C.ar      12 UNK        -0.0787 
     12 C12        31.8321   -1.5171   -4.7833 C.ar      12 UNK        -0.0862 
     13 C13        30.4635   -1.6292   -5.0474 C.ar      12 UNK        -0.0733 
     14 C14        29.5927   -0.6765   -4.5117 C.ar      12 UNK        -0.0832 
     15 C15        29.9411   -2.8088   -5.8644 C.3       12 UNK         0.0240 
     16 S16        28.8691   -2.3271   -7.2594 S.3       12 UNK        -0.2522 
     17 C17        27.1961   -2.3889   -6.5180 C.3       12 UNK        -0.0967 
     18 CA         26.2271   -1.3257   -7.0946 C.3       5 UNK         0.0660 
     19 N          24.8277   -1.6626   -6.8185 N.am      5 UNK        -0.4015 
     20 C          23.7685   -1.0406   -7.3614 C.2       4 UNK         0.4946 
     21 O          23.8636   -0.1734   -8.2317 O.2       4 UNK        -0.5353 
     22 CA         22.3740   -1.3842   -6.8040 C.3       4 UNK         0.0277 
     23 CB         21.6516   -2.3670   -7.7391 C.3       4 UNK        -0.1981 
     24 N          22.3781   -1.9285   -5.4412 N.am      4 UNK        -0.4209 
     25 C          22.8916   -1.3338   -4.3533 C.2       3 UNK         0.4942 
     26 O          23.4212   -0.2229   -4.3682 O.2       3 UNK        -0.5208 
     27 CA         22.8585   -2.1309   -3.0359 C.3       3 UNK         0.0250 
     28 CB         21.7946   -3.2517   -3.0175 C.3       3 UNK        -0.1990 
     29 N          24.1696   -2.6859   -2.6735 N.am      3 UNK        -0.4232 
     30 C          24.9930   -3.4218   -3.4344 C.2       2 UNK         0.4993 
     31 O          24.8171   -3.6350   -4.6368 O.2       2 UNK        -0.5286 
     32 CA         26.2139   -4.0328   -2.7203 C.3       2 UNK         0.0209 
     33 CB         26.9706   -5.0457   -3.6007 C.3       2 UNK        -0.1931 
     34 N          27.1620   -3.0276   -2.2354 N.am      2 UNK        -0.4546 
     35 C          27.0110   -2.2708   -1.1383 C.2       1 UNK         0.5154 
     36 O          25.9818   -2.2654   -0.4594 O.2       1 UNK        -0.5181 
     37 C          26.5993    0.1168   -6.6748 C.2       5 UNK         0.5014 
     38 O          27.5906    0.6339   -7.1850 O.2       5 UNK        -0.5248 
     39 N          25.7963    0.7889   -5.8321 N.am      6 UNK        -0.4434 
     40 CA         25.9484    2.2132   -5.5013 C.3       6 UNK         0.0363 
     41 CB         24.8862    2.6207   -4.4688 C.3       6 UNK        -0.1936 
     42 C          25.8962    3.1589   -6.7175 C.2       6 UNK         0.5081 
     43 O          26.4770    4.2427   -6.6597 O.2       6 UNK        -0.5248 
     44 N          25.2308    2.7324   -7.8004 N.am      7 UNK        -0.4718 
     45 CA         25.1968    3.4427   -9.0800 C.3       7 UNK         0.0273 
     46 CB         23.9251    3.0268   -9.8380 C.3       7 UNK        -0.1935 
     47 C          26.4449    3.1956   -9.9516 C.2       7 UNK         0.5018 
     48 O          26.6311    3.9222  -10.9289 O.2       7 UNK        -0.5186 
     49 N          27.2527    2.1781   -9.6194 N.am      8 UNK        -0.4240 
     50 CA         28.4084    1.7346  -10.4020 C.3       8 UNK         0.0235 
     51 CB         28.2634    0.2329  -10.7083 C.3       8 UNK        -0.2000 
     52 C          29.7369    1.9994   -9.6807 C.2       8 UNK         0.4941 
     53 O          30.6750    2.4732  -10.3224 O.2       8 UNK        -0.5273 
     54 N          29.8000    1.6660   -8.3811 N.am      9 UNK        -0.4262 
     55 CA         30.9867    1.6525   -7.5163 C.3       9 UNK         0.0264 
     56 CB         31.4633    3.0862   -7.2077 C.3       9 UNK        -0.1955 
     57 C          32.0983    0.7489   -8.0847 C.2       9 UNK         0.5031 
     58 O          33.2444    1.1807   -8.2332 O.2       9 UNK        -0.5390 
     59 N          31.7272   -0.4917   -8.4311 N.am      10 UNK        -0.4204 
     60 CA         32.5987   -1.4930   -9.0496 C.3       10 UNK         0.0237 
     61 CB         31.7294   -2.5126   -9.8091 C.3       10 UNK        -0.1985 
     62 C          33.5250   -2.1549   -8.0128 C.2       10 UNK         0.4970 
     63 O          33.3945   -3.3487   -7.7373 O.2       10 UNK        -0.4914 
     64 N          34.4249   -1.3538   -7.4328 N.am      11 UNK        -0.4285 
     65 CA         35.3773   -1.7645   -6.3888 C.3       11 UNK         0.1007 
     66 C          36.5433   -2.6709   -6.8810 C.2       11 UNK         0.5703 
     67 N          36.7709   -2.8199   -8.1808 N.am      11 UNK        -0.7361 
     68 O          37.2514   -3.2556   -6.0645 O.2       11 UNK        -0.4986 
     69 C69        35.9236   -0.5529   -5.5841 C.3       12 UNK        -0.0947 
     70 S70        34.6437    0.6088   -4.9968 S.3       12 UNK        -0.2240 
     71 C71        33.8132   -0.3620   -3.7043 C.3       12 UNK         0.0194 
     72 H72        31.2747   -3.5671   -2.7159 H         1 UNK         0.0906 
     73 H73        32.0829   -3.8981   -1.1826 H         1 UNK         0.0906 
     74 H74        32.0595   -2.2568   -1.8166 H         1 UNK         0.0906 
     75 H75        29.8292   -1.2029   -2.0575 H         1 UNK         0.3140 
     76 H76        28.3214   -1.5874    0.3688 H         1 UNK         0.1085 
     77 H77        28.8224    0.6758   -0.4792 H         1 UNK         0.0836 
     78 H78        27.1352    0.4095   -0.1955 H         1 UNK         0.0836 
     79 H79        28.8973    2.1287   -3.9153 H         1 UNK         0.0731 
     80 H80        29.5841    1.9667   -2.3233 H         1 UNK         0.0731 
     81 H81        31.8173    1.2694   -2.8447 H         1 UNK         0.1312 
     82 H82        32.5167   -2.2511   -5.1835 H         1 UNK         0.1406 
     83 H83        28.5368   -0.7363   -4.7157 H         1 UNK         0.1631 
     84 H84        29.4132   -3.4994   -5.2070 H         1 UNK         0.0717 
     85 H85        30.7780   -3.3728   -6.2796 H         1 UNK         0.0717 
     86 H86        26.8054   -3.3862   -6.7273 H         1 UNK         0.0934 
     87 H87        27.2418   -2.3224   -5.4315 H         1 UNK         0.0934 
     88 H88        26.3277   -1.3542   -8.1819 H         1 UNK         0.0739 
     89 H89        24.6684   -2.3625   -6.0970 H         1 UNK         0.3093 
     90 H90        21.8040   -0.4532   -6.7777 H         1 UNK         0.0818 
     91 H91        21.6086   -1.9772   -8.7573 H         1 UNK         0.0819 
     92 H92        22.1593   -3.3316   -7.7807 H         1 UNK         0.0819 
     93 H93        20.6242   -2.5400   -7.4181 H         1 UNK         0.0819 
     94 H94        22.0031   -2.8593   -5.3291 H         1 UNK         0.3041 
     95 H95        22.5974   -1.4143   -2.2556 H         1 UNK         0.0784 
     96 H96        20.8084   -2.8670   -3.2818 H         1 UNK         0.0793 
     97 H97        22.0342   -4.0634   -3.7056 H         1 UNK         0.0793 
     98 H98        21.7076   -3.6864   -2.0216 H         1 UNK         0.0793 
     99 H99        24.4822   -2.4979   -1.7247 H         1 UNK         0.3024 
    100 H100       25.8281   -4.5817   -1.8578 H         1 UNK         0.1171 
    101 H101       26.3048   -5.8419   -3.9368 H         1 UNK         0.0786 
    102 H102       27.3914   -4.5808   -4.4911 H         1 UNK         0.0786 
    103 H103       27.7850   -5.5189   -3.0517 H         1 UNK         0.0786 
    104 H104       28.0390   -2.9539   -2.7280 H         1 UNK         0.2977 
    105 H105       24.9912    0.3207   -5.4237 H         1 UNK         0.3127 
    106 H106       26.9311    2.3382   -5.0482 H         1 UNK         0.0770 
    107 H107       23.8764    2.5079   -4.8653 H         1 UNK         0.0814 
    108 H108       25.0078    3.6632   -4.1722 H         1 UNK         0.0814 
    109 H109       24.9591    2.0172   -3.5640 H         1 UNK         0.0814 
    110 H110       24.7788    1.8251   -7.7729 H         1 UNK         0.2983 
    111 H111       25.1421    4.5169   -8.8888 H         1 UNK         0.0947 
    112 H112       23.9247    1.9608  -10.0699 H         1 UNK         0.0806 
    113 H113       23.8373    3.5660  -10.7823 H         1 UNK         0.0806 
    114 H114       23.0279    3.2438   -9.2580 H         1 UNK         0.0806 
    115 H115       27.0726    1.6748   -8.7572 H         1 UNK         0.3000 
    116 H116       28.4457    2.2644  -11.3564 H         1 UNK         0.0850 
    117 H117       29.1108   -0.1305  -11.2915 H         1 UNK         0.0810 
    118 H118       27.3622    0.0340  -11.2883 H         1 UNK         0.0810 
    119 H119       28.2133   -0.3668   -9.7986 H         1 UNK         0.0810 
    120 H120       28.9598    1.2760   -7.9489 H         1 UNK         0.3040 
    121 H121       30.6760    1.1999   -6.5735 H         1 UNK         0.0766 
    122 H122       31.8182    3.5975   -8.1029 H         1 UNK         0.0812 
    123 H123       32.2858    3.0741   -6.4912 H         1 UNK         0.0812 
    124 H124       30.6622    3.6839   -6.7732 H         1 UNK         0.0812 
    125 H125       30.7778   -0.7804   -8.2367 H         1 UNK         0.3205 
    126 H126       33.2355   -0.9946   -9.7837 H         1 UNK         0.0754 
    127 H127       32.3513   -3.2389  -10.3340 H         1 UNK         0.0769 
    128 H128       31.1035   -2.0234  -10.5558 H         1 UNK         0.0769 
    129 H129       31.0762   -3.0709   -9.1380 H         1 UNK         0.0769 
    130 H130       34.4069   -0.3666   -7.6693 H         1 UNK         0.2981 
    131 H131       34.8195   -2.3867   -5.6882 H         1 UNK         0.0541 
    132 H132       36.1981   -2.3426   -8.8576 H         1 UNK         0.3459 
    133 H133       37.5267   -3.4130   -8.4852 H         1 UNK         0.3459 
    134 H134       36.6184    0.0204   -6.2005 H         1 UNK         0.0612 
    135 H135       36.4970   -0.8932   -4.7197 H         1 UNK         0.0612 
    136 H136       34.2540   -1.3558   -3.6190 H         1 UNK         0.0624 
    137 H137       33.9765    0.1230   -2.7409 H         1 UNK         0.0624 
@<TRIPOS>BOND
     1    1    2 1    
     2    1   72 1    
     3    1   73 1    
     4    1   74 1    
     5    2    3 2    
     6    2    4 am   BACKBONE|DICT|INTERRES
     7    4    5 1    
     8    4   75 1    
     9    5    6 1    
    10    5   35 1    
    11    5   76 1    
    12    6    7 1    
    13    6   77 1    
    14    6   78 1    
    15    7    8 1    
    16    8    9 1    
    17    8   79 1    
    18    8   80 1    
    19    9   10 ar   
    20    9   14 ar   
    21   10   11 ar   
    22   10   81 1    
    23   11   12 ar   
    24   11   71 1    
    25   12   13 ar   
    26   12   82 1    
    27   13   14 ar   
    28   13   15 1    
    29   14   83 1    
    30   15   16 1    
    31   15   84 1    
    32   15   85 1    
    33   16   17 1    
    34   17   18 1    
    35   17   86 1    
    36   17   87 1    
    37   18   19 1    
    38   18   37 1    
    39   18   88 1    
    40   19   20 am   BACKBONE|DICT|INTERRES
    41   19   89 1    
    42   20   21 2    
    43   20   22 1    
    44   22   23 1    
    45   22   24 1    
    46   22   90 1    
    47   23   91 1    
    48   23   92 1    
    49   23   93 1    
    50   24   25 am   BACKBONE|DICT|INTERRES
    51   24   94 1    
    52   25   26 2    
    53   25   27 1    
    54   27   28 1    
    55   27   29 1    
    56   27   95 1    
    57   28   96 1    
    58   28   97 1    
    59   28   98 1    
    60   29   30 am   BACKBONE|DICT|INTERRES
    61   29   99 1    
    62   30   31 2    
    63   30   32 1    
    64   32   33 1    
    65   32   34 1    
    66   32  100 1    
    67   33  101 1    
    68   33  102 1    
    69   33  103 1    
    70   34   35 am   BACKBONE|DICT|INTERRES
    71   34  104 1    
    72   35   36 2    
    73   37   38 2    
    74   37   39 am   BACKBONE|DICT|INTERRES
    75   39   40 1    
    76   39  105 1    
    77   40   41 1    
    78   40   42 1    
    79   40  106 1    
    80   41  107 1    
    81   41  108 1    
    82   41  109 1    
    83   42   43 2    
    84   42   44 am   BACKBONE|DICT|INTERRES
    85   44   45 1    
    86   44  110 1    
    87   45   46 1    
    88   45   47 1    
    89   45  111 1    
    90   46  112 1    
    91   46  113 1    
    92   46  114 1    
    93   47   48 2    
    94   47   49 am   BACKBONE|DICT|INTERRES
    95   49   50 1    
    96   49  115 1    
    97   50   51 1    
    98   50   52 1    
    99   50  116 1    
   100   51  117 1    
   101   51  118 1    
   102   51  119 1    
   103   52   53 2    
   104   52   54 am   BACKBONE|DICT|INTERRES
   105   54   55 1    
   106   54  120 1    
   107   55   56 1    
   108   55   57 1    
   109   55  121 1    
   110   56  122 1    
   111   56  123 1    
   112   56  124 1    
   113   57   58 2    
   114   57   59 am   BACKBONE|DICT|INTERRES
   115   59   60 1    
   116   59  125 1    
   117   60   61 1    
   118   60   62 1    
   119   60  126 1    
   120   61  127 1    
   121   61  128 1    
   122   61  129 1    
   123   62   63 2    
   124   62   64 am   BACKBONE|DICT|INTERRES
   125   64   65 1    
   126   64  130 1    
   127   65   66 1    
   128   65   69 1    
   129   65  131 1    
   130   66   67 am   BACKBONE|DICT|INTERRES
   131   66   68 2    
   132   67  132 1    
   133   67  133 1    
   134   69   70 1    
   135   69  134 1    
   136   69  135 1    
   137   70   71 1    
   138   71  136 1    
   139   71  137 1    
@<TRIPOS>SUBSTRUCTURE
     1 UNK         1 GROUP             0       ****    0 ROOT    
