@<TRIPOS>MOLECULE
3R137
137   139    1
SMALL
USER_CHARGES


@<TRIPOS>ATOM
      1 CA         29.4217   -4.1153   -4.9155 C.3       0 UNK        -0.2020 
      2 C          28.7726   -4.8633   -3.7637 C.2       0 UNK         0.4855 
      3 O          28.1992   -5.9318   -3.9756 O.2       0 UNK        -0.5197 
      4 N          28.8527   -4.3102   -2.5466 N.am      1 UNK        -0.4892 
      5 CA         28.2688   -4.8877   -1.3262 C.3       1 UNK         0.0835 
      6 C6         28.8713   -4.2592   -0.0466 C.3       12 UNK        -0.0855 
      7 S7         30.6611   -4.5829    0.0990 S.3       12 UNK        -0.2931 
      8 C8         31.3467   -2.9013    0.2194 C.3       12 UNK         0.0378 
      9 C9         31.3640   -2.1813   -1.1220 C.ar      12 UNK        -0.0802 
     10 C10        32.3144   -2.5282   -2.0873 C.ar      12 UNK        -0.0944 
     11 C11        32.3878   -1.8290   -3.2951 C.ar      12 UNK        -0.0787 
     12 C12        31.4942   -0.7809   -3.5388 C.ar      12 UNK        -0.0862 
     13 C13        30.5353   -0.4271   -2.5837 C.ar      12 UNK        -0.0733 
     14 C14        30.4727   -1.1341   -1.3784 C.ar      12 UNK        -0.0832 
     15 C15        29.5949    0.7465   -2.8299 C.3       12 UNK         0.0240 
     16 S16        27.9548    0.2009   -3.3974 S.3       12 UNK        -0.2522 
     17 C17        28.3317   -0.3450   -5.0978 C.3       12 UNK        -0.0967 
     18 CA         27.3623    0.1588   -6.1933 C.3       5 UNK         0.0660 
     19 N          26.0636   -0.5256   -6.1692 N.am      5 UNK        -0.4015 
     20 C          25.1986   -0.5191   -7.1980 C.2       4 UNK         0.4946 
     21 O          25.4397    0.0314   -8.2731 O.2       4 UNK        -0.5353 
     22 CA         23.8157   -1.1695   -7.0033 C.3       4 UNK         0.0277 
     23 CB         23.8163   -2.5943   -7.5780 C.3       4 UNK        -0.1981 
     24 N          23.3545   -1.2089   -5.6140 N.am      4 UNK        -0.4209 
     25 C          23.2392   -0.1534   -4.7951 C.2       3 UNK         0.4942 
     26 O          23.4188    1.0102   -5.1553 O.2       3 UNK        -0.5208 
     27 CA         22.9385   -0.4408   -3.3112 C.3       3 UNK         0.0250 
     28 CB         21.4498   -0.1990   -3.0147 C.3       3 UNK        -0.1990 
     29 N          23.3169   -1.7784   -2.8262 N.am      3 UNK        -0.4232 
     30 C          24.5229   -2.3537   -2.9448 C.2       2 UNK         0.4993 
     31 O          25.4576   -1.8742   -3.5926 O.2       2 UNK        -0.5286 
     32 CA         24.7027   -3.7167   -2.2717 C.3       2 UNK         0.0209 
     33 CB         24.0586   -4.8353   -3.1129 C.3       2 UNK        -0.1931 
     34 N          26.1346   -3.9559   -2.1359 N.am      2 UNK        -0.4546 
     35 C          26.7252   -4.8088   -1.2931 C.2       1 UNK         0.5154 
     36 O          26.1013   -5.5194   -0.5028 O.2       1 UNK        -0.5181 
     37 C          27.2589    1.7005   -6.2722 C.2       5 UNK         0.5014 
     38 O          28.2450    2.3435   -6.6283 O.2       5 UNK        -0.5248 
     39 N          26.0737    2.2789   -6.0157 N.am      6 UNK        -0.4434 
     40 CA         25.7857    3.6880   -6.2996 C.3       6 UNK         0.0363 
     41 CB         24.4647    4.0913   -5.6265 C.3       6 UNK        -0.1936 
     42 C          25.7348    3.9946   -7.8103 C.2       6 UNK         0.5081 
     43 O          26.0075    5.1311   -8.1974 O.2       6 UNK        -0.5248 
     44 N          25.3955    2.9897   -8.6312 N.am      7 UNK        -0.4718 
     45 CA         25.3615    3.0779  -10.0917 C.3       7 UNK         0.0273 
     46 CB         24.0988    2.3730  -10.6146 C.3       7 UNK        -0.1935 
     47 C          26.6217    2.4607  -10.7159 C.2       7 UNK         0.5018 
     48 O          27.1903    3.0528  -11.6335 O.2       7 UNK        -0.5186 
     49 N          27.0398    1.2895  -10.2126 N.am      8 UNK        -0.4240 
     50 CA         28.1969    0.5329  -10.7060 C.3       8 UNK         0.0235 
     51 CB         28.0633   -0.9362  -10.2695 C.3       8 UNK        -0.2000 
     52 C          29.5623    1.1085  -10.2806 C.2       8 UNK         0.4941 
     53 O          30.5785    0.6823  -10.8317 O.2       8 UNK        -0.5273 
     54 N          29.5656    2.0522   -9.3276 N.am      9 UNK        -0.4262 
     55 CA         30.7259    2.7083   -8.7162 C.3       9 UNK         0.0264 
     56 CB         31.5796    3.4490   -9.7721 C.3       9 UNK        -0.1955 
     57 C          31.5354    1.7481   -7.8225 C.2       9 UNK         0.5031 
     58 O          31.0238    0.7062   -7.4022 O.2       9 UNK        -0.5390 
     59 N          32.7830    2.1262   -7.5144 N.am      10 UNK        -0.4204 
     60 CA         33.6976    1.4367   -6.5980 C.3       10 UNK         0.0237 
     61 CB         34.7904    2.4271   -6.1525 C.3       10 UNK        -0.1985 
     62 C          34.2805    0.1225   -7.1619 C.2       10 UNK         0.4970 
     63 O          35.4966   -0.0722   -7.1286 O.2       10 UNK        -0.4914 
     64 N          33.3983   -0.7629   -7.6396 N.am      11 UNK        -0.4285 
     65 CA         33.6796   -2.1349   -8.0972 C.3       11 UNK         0.1007 
     66 C          34.6243   -2.2382   -9.3345 C.2       11 UNK         0.5703 
     67 N          34.7631   -1.1941  -10.1431 N.am      11 UNK        -0.7361 
     68 O          35.2152   -3.2852   -9.5904 O.2       11 UNK        -0.4986 
     69 C69        34.0920   -3.0739   -6.9244 C.3       12 UNK        -0.0947 
     70 S70        32.7827   -3.2039   -5.6593 S.3       12 UNK        -0.2240 
     71 C71        33.4561   -2.1757   -4.3209 C.3       12 UNK         0.0194 
     72 H72        28.6703   -3.8303   -5.6511 H         1 UNK         0.0906 
     73 H73        30.1542   -4.7537   -5.4083 H         1 UNK         0.0906 
     74 H74        29.9318   -3.2139   -4.5766 H         1 UNK         0.0906 
     75 H75        29.3725   -3.4522   -2.4187 H         1 UNK         0.3140 
     76 H76        28.5121   -5.9528   -1.3191 H         1 UNK         0.1085 
     77 H77        28.3980   -4.6750    0.8454 H         1 UNK         0.0836 
     78 H78        28.6758   -3.1859   -0.0179 H         1 UNK         0.0836 
     79 H79        30.7900   -2.3311    0.9648 H         1 UNK         0.0731 
     80 H80        32.3680   -2.9697    0.5969 H         1 UNK         0.0731 
     81 H81        33.0094   -3.3327   -1.8878 H         1 UNK         0.1312 
     82 H82        31.5542   -0.2354   -4.4705 H         1 UNK         0.1406 
     83 H83        29.7423   -0.8508   -0.6324 H         1 UNK         0.1631 
     84 H84        30.0212    1.4412   -3.5556 H         1 UNK         0.0717 
     85 H85        29.4731    1.3139   -1.9062 H         1 UNK         0.0717 
     86 H86        29.3435   -0.0339   -5.3604 H         1 UNK         0.0934 
     87 H87        28.3544   -1.4337   -5.1013 H         1 UNK         0.0934 
     88 H88        27.8273   -0.1284   -7.1370 H         1 UNK         0.0739 
     89 H89        25.8059   -0.9765   -5.2934 H         1 UNK         0.3093 
     90 H90        23.0978   -0.5702   -7.5667 H         1 UNK         0.0818 
     91 H91        24.1360   -2.5940   -8.6213 H         1 UNK         0.0819 
     92 H92        24.4936   -3.2505   -7.0298 H         1 UNK         0.0819 
     93 H93        22.8203   -3.0363   -7.5476 H         1 UNK         0.0819 
     94 H94        23.1994   -2.1236   -5.2171 H         1 UNK         0.3041 
     95 H95        23.5213    0.2789   -2.7330 H         1 UNK         0.0784 
     96 H96        21.1427    0.7966   -3.3389 H         1 UNK         0.0793 
     97 H97        20.8138   -0.9198   -3.5300 H         1 UNK         0.0793 
     98 H98        21.2399   -0.2666   -1.9471 H         1 UNK         0.0793 
     99 H99        22.6071   -2.2695   -2.3012 H         1 UNK         0.3024 
    100 H100       24.2479   -3.6821   -1.2790 H         1 UNK         0.1171 
    101 H101       22.9880   -4.6702   -3.2391 H         1 UNK         0.0786 
    102 H102       24.5019   -4.8943   -4.1080 H         1 UNK         0.0786 
    103 H103       24.1783   -5.8092   -2.6381 H         1 UNK         0.0786 
    104 H104       26.7068   -3.3662   -2.7291 H         1 UNK         0.2977 
    105 H105       25.2908    1.7069   -5.7141 H         1 UNK         0.3127 
    106 H106       26.5859    4.2916   -5.8656 H         1 UNK         0.0770 
    107 H107       23.6158    3.5518   -6.0484 H         1 UNK         0.0814 
    108 H108       24.2703    5.1564   -5.7587 H         1 UNK         0.0814 
    109 H109       24.4875    3.8956   -4.5544 H         1 UNK         0.0814 
    110 H110       25.2212    2.0729   -8.2348 H         1 UNK         0.2983 
    111 H111       25.3143    4.1235  -10.4045 H         1 UNK         0.0947 
    112 H112       24.0457    2.4253  -11.7030 H         1 UNK         0.0806 
    113 H113       23.1953    2.8414  -10.2240 H         1 UNK         0.0806 
    114 H114       24.0745    1.3185  -10.3370 H         1 UNK         0.0806 
    115 H115       26.4823    0.8450   -9.4841 H         1 UNK         0.3000 
    116 H116       28.1716    0.5582  -11.7976 H         1 UNK         0.0850 
    117 H117       28.8626   -1.5435  -10.6964 H         1 UNK         0.0810 
    118 H118       27.1182   -1.3656  -10.6023 H         1 UNK         0.0810 
    119 H119       28.1180   -1.0464   -9.1876 H         1 UNK         0.0810 
    120 H120       28.6848    2.2632   -8.8777 H         1 UNK         0.3040 
    121 H121       30.3118    3.4617   -8.0448 H         1 UNK         0.0766 
    122 H122       32.1662    2.7597  -10.3806 H         1 UNK         0.0812 
    123 H123       32.2732    4.1495   -9.3067 H         1 UNK         0.0812 
    124 H124       30.9514    4.0319  -10.4460 H         1 UNK         0.0812 
    125 H125       33.1317    2.9787   -7.9278 H         1 UNK         0.3205 
    126 H126       33.1294    1.1623   -5.7073 H         1 UNK         0.0754 
    127 H127       35.4512    1.9755   -5.4111 H         1 UNK         0.0769 
    128 H128       34.3582    3.3166   -5.6935 H         1 UNK         0.0769 
    129 H129       35.4106    2.7479   -6.9905 H         1 UNK         0.0769 
    130 H130       32.4187   -0.4868   -7.6306 H         1 UNK         0.2981 
    131 H131       32.7250   -2.5038   -8.4736 H         1 UNK         0.0541 
    132 H132       35.3658   -1.2681  -10.9472 H         1 UNK         0.3459 
    133 H133       34.2721   -0.3354   -9.9542 H         1 UNK         0.3459 
    134 H134       35.0263   -2.7443   -6.4675 H         1 UNK         0.0612 
    135 H135       34.2743   -4.0861   -7.2887 H         1 UNK         0.0612 
    136 H136       34.2866   -2.7039   -3.8503 H         1 UNK         0.0624 
    137 H137       33.8721   -1.2554   -4.7278 H         1 UNK         0.0624 
@<TRIPOS>BOND
     1    1    2 1    
     2    1   72 1    
     3    1   73 1    
     4    1   74 1    
     5    2    3 2    
     6    2    4 am   BACKBONE|DICT|INTERRES
     7    4    5 1    
     8    4   75 1    
     9    5    6 1    
    10    5   35 1    
    11    5   76 1    
    12    6    7 1    
    13    6   77 1    
    14    6   78 1    
    15    7    8 1    
    16    8    9 1    
    17    8   79 1    
    18    8   80 1    
    19    9   10 ar   
    20    9   14 ar   
    21   10   11 ar   
    22   10   81 1    
    23   11   12 ar   
    24   11   71 1    
    25   12   13 ar   
    26   12   82 1    
    27   13   14 ar   
    28   13   15 1    
    29   14   83 1    
    30   15   16 1    
    31   15   84 1    
    32   15   85 1    
    33   16   17 1    
    34   17   18 1    
    35   17   86 1    
    36   17   87 1    
    37   18   19 1    
    38   18   37 1    
    39   18   88 1    
    40   19   20 am   BACKBONE|DICT|INTERRES
    41   19   89 1    
    42   20   21 2    
    43   20   22 1    
    44   22   23 1    
    45   22   24 1    
    46   22   90 1    
    47   23   91 1    
    48   23   92 1    
    49   23   93 1    
    50   24   25 am   BACKBONE|DICT|INTERRES
    51   24   94 1    
    52   25   26 2    
    53   25   27 1    
    54   27   28 1    
    55   27   29 1    
    56   27   95 1    
    57   28   96 1    
    58   28   97 1    
    59   28   98 1    
    60   29   30 am   BACKBONE|DICT|INTERRES
    61   29   99 1    
    62   30   31 2    
    63   30   32 1    
    64   32   33 1    
    65   32   34 1    
    66   32  100 1    
    67   33  101 1    
    68   33  102 1    
    69   33  103 1    
    70   34   35 am   BACKBONE|DICT|INTERRES
    71   34  104 1    
    72   35   36 2    
    73   37   38 2    
    74   37   39 am   BACKBONE|DICT|INTERRES
    75   39   40 1    
    76   39  105 1    
    77   40   41 1    
    78   40   42 1    
    79   40  106 1    
    80   41  107 1    
    81   41  108 1    
    82   41  109 1    
    83   42   43 2    
    84   42   44 am   BACKBONE|DICT|INTERRES
    85   44   45 1    
    86   44  110 1    
    87   45   46 1    
    88   45   47 1    
    89   45  111 1    
    90   46  112 1    
    91   46  113 1    
    92   46  114 1    
    93   47   48 2    
    94   47   49 am   BACKBONE|DICT|INTERRES
    95   49   50 1    
    96   49  115 1    
    97   50   51 1    
    98   50   52 1    
    99   50  116 1    
   100   51  117 1    
   101   51  118 1    
   102   51  119 1    
   103   52   53 2    
   104   52   54 am   BACKBONE|DICT|INTERRES
   105   54   55 1    
   106   54  120 1    
   107   55   56 1    
   108   55   57 1    
   109   55  121 1    
   110   56  122 1    
   111   56  123 1    
   112   56  124 1    
   113   57   58 2    
   114   57   59 am   BACKBONE|DICT|INTERRES
   115   59   60 1    
   116   59  125 1    
   117   60   61 1    
   118   60   62 1    
   119   60  126 1    
   120   61  127 1    
   121   61  128 1    
   122   61  129 1    
   123   62   63 2    
   124   62   64 am   BACKBONE|DICT|INTERRES
   125   64   65 1    
   126   64  130 1    
   127   65   66 1    
   128   65   69 1    
   129   65  131 1    
   130   66   67 am   BACKBONE|DICT|INTERRES
   131   66   68 2    
   132   67  132 1    
   133   67  133 1    
   134   69   70 1    
   135   69  134 1    
   136   69  135 1    
   137   70   71 1    
   138   71  136 1    
   139   71  137 1    
@<TRIPOS>SUBSTRUCTURE
     1 UNK         1 GROUP             0       ****    0 ROOT    
