@<TRIPOS>MOLECULE
3R137
137   139    1
SMALL
USER_CHARGES


@<TRIPOS>ATOM
      1 CA         25.9934   -5.5595   -2.9041 C.3       0 UNK        -0.2020 
      2 C          26.1939   -4.5854   -1.7550 C.2       0 UNK         0.4855 
      3 O          25.3019   -4.4349   -0.9196 O.2       0 UNK        -0.5197 
      4 N          27.3492   -3.9093   -1.7052 N.am      1 UNK        -0.4892 
      5 CA         27.7521   -2.9724   -0.6438 C.3       1 UNK         0.0835 
      6 C6         29.2949   -2.8773   -0.5154 C.3       12 UNK        -0.0855 
      7 S7         30.0573   -4.5132   -0.2345 S.3       12 UNK        -0.2931 
      8 C8         31.6003   -4.3897   -1.1991 C.3       12 UNK         0.0378 
      9 C9         31.3905   -4.1518   -2.6929 C.ar      12 UNK        -0.0802 
     10 C10        32.1743   -3.2005   -3.3508 C.ar      12 UNK        -0.0944 
     11 C11        32.0493   -2.9983   -4.7273 C.ar      12 UNK        -0.0787 
     12 C12        31.1131   -3.7452   -5.4497 C.ar      12 UNK        -0.0862 
     13 C13        30.3184   -4.7042   -4.8073 C.ar      12 UNK        -0.0733 
     14 C14        30.4698   -4.9056   -3.4302 C.ar      12 UNK        -0.0832 
     15 C15        29.3616   -5.5969   -5.5952 C.3       12 UNK         0.0240 
     16 S16        28.3851   -4.7299   -6.8678 S.3       12 UNK        -0.2522 
     17 C17        27.1874   -3.7657   -5.8832 C.3       12 UNK        -0.0967 
     18 CA         26.6583   -2.5495   -6.6842 C.3       5 UNK         0.0660 
     19 N          25.3661   -2.0645   -6.1989 N.am      5 UNK        -0.4015 
     20 C          24.2681   -1.9570   -6.9627 C.2       4 UNK         0.4946 
     21 O          24.1624   -2.4393   -8.0913 O.2       4 UNK        -0.5353 
     22 CA         23.0858   -1.1420   -6.3998 C.3       4 UNK         0.0277 
     23 CB         22.0802   -2.0728   -5.7027 C.3       4 UNK        -0.1981 
     24 N          23.4692   -0.0705   -5.4747 N.am      4 UNK        -0.4209 
     25 C          24.3654    0.8984   -5.7160 C.2       3 UNK         0.4942 
     26 O          24.9428    1.0507   -6.7915 O.2       3 UNK        -0.5208 
     27 CA         24.7573    1.8011   -4.5325 C.3       3 UNK         0.0250 
     28 CB         23.9157    3.0865   -4.5438 C.3       3 UNK        -0.1990 
     29 N          24.6689    1.1693   -3.2073 N.am      3 UNK        -0.4232 
     30 C          25.2015   -0.0080   -2.8443 C.2       2 UNK         0.4993 
     31 O          25.8066   -0.7584   -3.6196 O.2       2 UNK        -0.5286 
     32 CA         24.9514   -0.4341   -1.3872 C.3       2 UNK         0.0209 
     33 CB         23.4712   -0.8001   -1.1789 C.3       2 UNK        -0.1931 
     34 N          25.7649   -1.5892   -1.0142 N.am      2 UNK        -0.4546 
     35 C          27.0889   -1.5871   -0.8247 C.2       1 UNK         0.5154 
     36 O          27.7684   -0.5587   -0.8064 O.2       1 UNK        -0.5181 
     37 C          27.6776   -1.3987   -6.7110 C.2       5 UNK         0.5014 
     38 O          28.3838   -1.2552   -7.7075 O.2       5 UNK        -0.5248 
     39 N          27.7489   -0.5936   -5.6402 N.am      6 UNK        -0.4434 
     40 CA         28.8195    0.3851   -5.4384 C.3       6 UNK         0.0363 
     41 CB         28.7839    0.9228   -4.0009 C.3       6 UNK        -0.1936 
     42 C          28.8655    1.5332   -6.4594 C.2       6 UNK         0.5081 
     43 O          29.9626    1.9853   -6.7897 O.2       6 UNK        -0.5248 
     44 N          27.7047    1.9771   -6.9615 N.am      7 UNK        -0.4718 
     45 CA         27.6244    2.9969   -8.0120 C.3       7 UNK         0.0273 
     46 CB         26.3254    3.8059   -7.8667 C.3       7 UNK        -0.1935 
     47 C          27.7269    2.3760   -9.4138 C.2       7 UNK         0.5018 
     48 O          28.2171    3.0409  -10.3255 O.2       7 UNK        -0.5186 
     49 N          27.2946    1.1142   -9.5598 N.am      8 UNK        -0.4240 
     50 CA         27.3952    0.3351  -10.7973 C.3       8 UNK         0.0235 
     51 CB         26.4931   -0.9069  -10.7051 C.3       8 UNK        -0.2000 
     52 C          28.8485   -0.0560  -11.1133 C.2       8 UNK         0.4941 
     53 O          29.2906    0.1120  -12.2501 O.2       8 UNK        -0.5273 
     54 N          29.5736   -0.5310  -10.0912 N.am      9 UNK        -0.4262 
     55 CA         31.0105   -0.8140  -10.1353 C.3       9 UNK         0.0264 
     56 CB         31.3672   -1.7488   -8.9678 C.3       9 UNK        -0.1955 
     57 C          31.8748    0.4594  -10.0780 C.2       9 UNK         0.5031 
     58 O          33.0567    0.3947  -10.4182 O.2       9 UNK        -0.5390 
     59 N          31.2762    1.5765   -9.6375 N.am      10 UNK        -0.4204 
     60 CA         31.8666    2.9055   -9.4455 C.3       10 UNK         0.0237 
     61 CB         32.3159    3.5126  -10.7919 C.3       10 UNK        -0.1985 
     62 C          32.9684    2.9361   -8.3675 C.2       10 UNK         0.4970 
     63 O          33.8916    3.7475   -8.4613 O.2       10 UNK        -0.4914 
     64 N          32.8414    2.0687   -7.3556 N.am      11 UNK        -0.4285 
     65 CA         33.6910    2.0515   -6.1581 C.3       11 UNK         0.1007 
     66 C          33.1750    2.9847   -5.0248 C.2       11 UNK         0.5703 
     67 N          31.9222    3.4283   -5.0512 N.am      11 UNK        -0.7361 
     68 O          33.9324    3.3283   -4.1202 O.2       11 UNK        -0.4986 
     69 C69        33.9651    0.6063   -5.6647 C.3       12 UNK        -0.0947 
     70 S70        32.4802   -0.2931   -5.1036 S.3       12 UNK        -0.2240 
     71 C71        32.9720   -2.0107   -5.4270 C.3       12 UNK         0.0194 
     72 H72        26.8996   -5.6840   -3.4931 H         1 UNK         0.0906 
     73 H73        25.7072   -6.5379   -2.5191 H         1 UNK         0.0906 
     74 H74        25.1986   -5.2068   -3.5606 H         1 UNK         0.0906 
     75 H75        28.0426   -4.0526   -2.4239 H         1 UNK         0.3140 
     76 H76        27.3775   -3.3592    0.3069 H         1 UNK         0.1085 
     77 H77        29.7204   -2.4152   -1.4082 H         1 UNK         0.0836 
     78 H78        29.5714   -2.2325    0.3210 H         1 UNK         0.0836 
     79 H79        32.2106   -3.5961   -0.7647 H         1 UNK         0.0731 
     80 H80        32.1651   -5.3141   -1.0722 H         1 UNK         0.0731 
     81 H81        32.9046   -2.6265   -2.7965 H         1 UNK         0.1312 
     82 H82        31.0235   -3.6014   -6.5176 H         1 UNK         0.1406 
     83 H83        29.8896   -5.6692   -2.9298 H         1 UNK         0.1631 
     84 H84        28.6797   -6.1259   -4.9295 H         1 UNK         0.0717 
     85 H85        29.9544   -6.3664   -6.0912 H         1 UNK         0.0717 
     86 H86        26.3607   -4.4352   -5.6440 H         1 UNK         0.0934 
     87 H87        27.6269   -3.4634   -4.9305 H         1 UNK         0.0934 
     88 H88        26.5439   -2.8701   -7.7220 H         1 UNK         0.0739 
     89 H89        25.3621   -1.6311   -5.2796 H         1 UNK         0.3093 
     90 H90        22.5880   -0.6693   -7.2490 H         1 UNK         0.0818 
     91 H91        21.1858   -1.5322   -5.3924 H         1 UNK         0.0819 
     92 H92        21.7566   -2.8702   -6.3735 H         1 UNK         0.0819 
     93 H93        22.5123   -2.5454   -4.8195 H         1 UNK         0.0819 
     94 H94        23.0597   -0.1074   -4.5531 H         1 UNK         0.3041 
     95 H95        25.7995    2.0849   -4.6818 H         1 UNK         0.0784 
     96 H96        23.9755    3.5852   -5.5126 H         1 UNK         0.0793 
     97 H97        22.8624    2.8820   -4.3475 H         1 UNK         0.0793 
     98 H98        24.2659    3.7981   -3.7958 H         1 UNK         0.0793 
     99 H99        24.1751    1.7008   -2.5042 H         1 UNK         0.3024 
    100 H100       25.2158    0.4008   -0.7342 H         1 UNK         0.1171 
    101 H101       22.8155    0.0466   -1.3857 H         1 UNK         0.0786 
    102 H102       23.2812   -1.1049   -0.1494 H         1 UNK         0.0786 
    103 H103       23.1633   -1.6196   -1.8302 H         1 UNK         0.0786 
    104 H104       25.3110   -2.4977   -1.0307 H         1 UNK         0.2977 
    105 H105       27.1120   -0.7325   -4.8575 H         1 UNK         0.3127 
    106 H106       29.7504   -0.1673   -5.5579 H         1 UNK         0.0770 
    107 H107       27.8634    1.4642   -3.7878 H         1 UNK         0.0814 
    108 H108       29.6151    1.6063   -3.8217 H         1 UNK         0.0814 
    109 H109       28.8726    0.1137   -3.2756 H         1 UNK         0.0814 
    110 H110       26.8311    1.5374   -6.6880 H         1 UNK         0.2983 
    111 H111       28.4576    3.6947   -7.8989 H         1 UNK         0.0947 
    112 H112       26.3198    4.6508   -8.5564 H         1 UNK         0.0806 
    113 H113       26.2173    4.2089   -6.8597 H         1 UNK         0.0806 
    114 H114       25.4420    3.2075   -8.0884 H         1 UNK         0.0806 
    115 H115       26.9225    0.6407   -8.7488 H         1 UNK         0.3000 
    116 H116       27.0316    0.9574  -11.6182 H         1 UNK         0.0850 
    117 H117       26.5201   -1.4762  -11.6351 H         1 UNK         0.0810 
    118 H118       25.4539   -0.6312  -10.5243 H         1 UNK         0.0810 
    119 H119       26.8022   -1.5792   -9.9046 H         1 UNK         0.0810 
    120 H120       29.1075   -0.7074   -9.1990 H         1 UNK         0.3040 
    121 H121       31.2361   -1.3276  -11.0721 H         1 UNK         0.0766 
    122 H122       32.4237   -2.0189   -8.9911 H         1 UNK         0.0812 
    123 H123       30.7930   -2.6746   -9.0107 H         1 UNK         0.0812 
    124 H124       31.1689   -1.2790   -8.0032 H         1 UNK         0.0812 
    125 H125       30.3081    1.4947   -9.3614 H         1 UNK         0.3205 
    126 H126       31.0613    3.5324   -9.0597 H         1 UNK         0.0754 
    127 H127       32.6125    4.5553  -10.6725 H         1 UNK         0.0769 
    128 H128       31.5084    3.4892  -11.5239 H         1 UNK         0.0769 
    129 H129       33.1679    2.9785  -11.2136 H         1 UNK         0.0769 
    130 H130       31.9982    1.5111   -7.3048 H         1 UNK         0.2981 
    131 H131       34.6658    2.4568   -6.4359 H         1 UNK         0.0541 
    132 H132       31.2782    3.0941   -5.7592 H         1 UNK         0.3459 
    133 H133       31.5999    4.0420   -4.3209 H         1 UNK         0.3459 
    134 H134       34.6871    0.6156   -4.8464 H         1 UNK         0.0612 
    135 H135       34.4354    0.0383   -6.4690 H         1 UNK         0.0612 
    136 H136       32.9879   -2.1866   -6.5029 H         1 UNK         0.0624 
    137 H137       33.9930   -2.1647   -5.0743 H         1 UNK         0.0624 
@<TRIPOS>BOND
     1    1    2 1    
     2    1   72 1    
     3    1   73 1    
     4    1   74 1    
     5    2    3 2    
     6    2    4 am   BACKBONE|DICT|INTERRES
     7    4    5 1    
     8    4   75 1    
     9    5    6 1    
    10    5   35 1    
    11    5   76 1    
    12    6    7 1    
    13    6   77 1    
    14    6   78 1    
    15    7    8 1    
    16    8    9 1    
    17    8   79 1    
    18    8   80 1    
    19    9   10 ar   
    20    9   14 ar   
    21   10   11 ar   
    22   10   81 1    
    23   11   12 ar   
    24   11   71 1    
    25   12   13 ar   
    26   12   82 1    
    27   13   14 ar   
    28   13   15 1    
    29   14   83 1    
    30   15   16 1    
    31   15   84 1    
    32   15   85 1    
    33   16   17 1    
    34   17   18 1    
    35   17   86 1    
    36   17   87 1    
    37   18   19 1    
    38   18   37 1    
    39   18   88 1    
    40   19   20 am   BACKBONE|DICT|INTERRES
    41   19   89 1    
    42   20   21 2    
    43   20   22 1    
    44   22   23 1    
    45   22   24 1    
    46   22   90 1    
    47   23   91 1    
    48   23   92 1    
    49   23   93 1    
    50   24   25 am   BACKBONE|DICT|INTERRES
    51   24   94 1    
    52   25   26 2    
    53   25   27 1    
    54   27   28 1    
    55   27   29 1    
    56   27   95 1    
    57   28   96 1    
    58   28   97 1    
    59   28   98 1    
    60   29   30 am   BACKBONE|DICT|INTERRES
    61   29   99 1    
    62   30   31 2    
    63   30   32 1    
    64   32   33 1    
    65   32   34 1    
    66   32  100 1    
    67   33  101 1    
    68   33  102 1    
    69   33  103 1    
    70   34   35 am   BACKBONE|DICT|INTERRES
    71   34  104 1    
    72   35   36 2    
    73   37   38 2    
    74   37   39 am   BACKBONE|DICT|INTERRES
    75   39   40 1    
    76   39  105 1    
    77   40   41 1    
    78   40   42 1    
    79   40  106 1    
    80   41  107 1    
    81   41  108 1    
    82   41  109 1    
    83   42   43 2    
    84   42   44 am   BACKBONE|DICT|INTERRES
    85   44   45 1    
    86   44  110 1    
    87   45   46 1    
    88   45   47 1    
    89   45  111 1    
    90   46  112 1    
    91   46  113 1    
    92   46  114 1    
    93   47   48 2    
    94   47   49 am   BACKBONE|DICT|INTERRES
    95   49   50 1    
    96   49  115 1    
    97   50   51 1    
    98   50   52 1    
    99   50  116 1    
   100   51  117 1    
   101   51  118 1    
   102   51  119 1    
   103   52   53 2    
   104   52   54 am   BACKBONE|DICT|INTERRES
   105   54   55 1    
   106   54  120 1    
   107   55   56 1    
   108   55   57 1    
   109   55  121 1    
   110   56  122 1    
   111   56  123 1    
   112   56  124 1    
   113   57   58 2    
   114   57   59 am   BACKBONE|DICT|INTERRES
   115   59   60 1    
   116   59  125 1    
   117   60   61 1    
   118   60   62 1    
   119   60  126 1    
   120   61  127 1    
   121   61  128 1    
   122   61  129 1    
   123   62   63 2    
   124   62   64 am   BACKBONE|DICT|INTERRES
   125   64   65 1    
   126   64  130 1    
   127   65   66 1    
   128   65   69 1    
   129   65  131 1    
   130   66   67 am   BACKBONE|DICT|INTERRES
   131   66   68 2    
   132   67  132 1    
   133   67  133 1    
   134   69   70 1    
   135   69  134 1    
   136   69  135 1    
   137   70   71 1    
   138   71  136 1    
   139   71  137 1    
@<TRIPOS>SUBSTRUCTURE
     1 UNK         1 GROUP             0       ****    0 ROOT    
