@<TRIPOS>MOLECULE
3R137
137   139    1
SMALL
USER_CHARGES


@<TRIPOS>ATOM
      1 CA         23.6855   -5.4933   -1.4928 C.3       0 UNK        -0.2020 
      2 C          24.8090   -4.6121   -2.0157 C.2       0 UNK         0.4855 
      3 O          24.6632   -4.0143   -3.0828 O.2       0 UNK        -0.5197 
      4 N          25.9180   -4.5177   -1.2640 N.am      1 UNK        -0.4892 
      5 CA         27.1286   -3.7428   -1.5814 C.3       1 UNK         0.0835 
      6 C6         27.9790   -4.3975   -2.7093 C.3       12 UNK        -0.0855 
      7 S7         29.1625   -5.6272   -2.0693 S.3       12 UNK        -0.2931 
      8 C8         30.5606   -4.5779   -1.5245 C.3       12 UNK         0.0378 
      9 C9         31.0431   -3.5928   -2.5864 C.ar      12 UNK        -0.0802 
     10 C10        31.4967   -4.0545   -3.8261 C.ar      12 UNK        -0.0944 
     11 C11        31.9198   -3.1540   -4.8073 C.ar      12 UNK        -0.0787 
     12 C12        31.9036   -1.7825   -4.5361 C.ar      12 UNK        -0.0862 
     13 C13        31.4694   -1.3039   -3.2968 C.ar      12 UNK        -0.0733 
     14 C14        31.0340   -2.2161   -2.3284 C.ar      12 UNK        -0.0832 
     15 C15        31.5115    0.1911   -2.9839 C.3       12 UNK         0.0240 
     16 S16        30.6891    1.2388   -4.2353 S.3       12 UNK        -0.2522 
     17 C17        28.9438    0.7575   -4.0342 C.3       12 UNK        -0.0967 
     18 CA         28.1964    0.6474   -5.3904 C.3       5 UNK         0.0660 
     19 N          27.2351   -0.4596   -5.3910 N.am      5 UNK        -0.4015 
     20 C          26.6104   -0.9402   -6.4754 C.2       4 UNK         0.4946 
     21 O          26.7652   -0.5011   -7.6139 O.2       4 UNK        -0.5353 
     22 CA         25.6089   -2.0840   -6.2477 C.3       4 UNK         0.0277 
     23 CB         26.3430   -3.4221   -6.0789 C.3       4 UNK        -0.1981 
     24 N          24.7284   -1.8469   -5.1007 N.am      4 UNK        -0.4209 
     25 C          23.8396   -0.8445   -5.0327 C.2       3 UNK         0.4942 
     26 O          23.6587   -0.0274   -5.9349 O.2       3 UNK        -0.5208 
     27 CA         23.0458   -0.7017   -3.7255 C.3       3 UNK         0.0250 
     28 CB         21.9237   -1.7490   -3.6400 C.3       3 UNK        -0.1990 
     29 N          23.9056   -0.7913   -2.5453 N.am      3 UNK        -0.4232 
     30 C          24.8333    0.1188   -2.2159 C.2       2 UNK         0.4993 
     31 O          25.0433    1.1502   -2.8536 O.2       2 UNK        -0.5286 
     32 CA         25.7119   -0.2005   -0.9943 C.3       2 UNK         0.0209 
     33 CB         25.0082    0.2203    0.3058 C.3       2 UNK        -0.1931 
     34 N          26.1091   -1.6110   -0.9069 N.am      2 UNK        -0.4546 
     35 C          26.7985   -2.2600   -1.8567 C.2       1 UNK         0.5154 
     36 O          27.1236   -1.7389   -2.9225 O.2       1 UNK        -0.5181 
     37 C          27.5499    1.9896   -5.8000 C.2       5 UNK         0.5014 
     38 O          28.2025    2.8042   -6.4543 O.2       5 UNK        -0.5248 
     39 N          26.2773    2.1998   -5.4268 N.am      6 UNK        -0.4434 
     40 CA         25.4740    3.3392   -5.8745 C.3       6 UNK         0.0363 
     41 CB         24.2270    3.4807   -4.9875 C.3       6 UNK        -0.1936 
     42 C          25.0743    3.2310   -7.3563 C.2       6 UNK         0.5081 
     43 O          25.0582    4.2497   -8.0480 O.2       6 UNK        -0.5248 
     44 N          24.7519    2.0132   -7.8163 N.am      7 UNK        -0.4718 
     45 CA         24.3563    1.7253   -9.1968 C.3       7 UNK         0.0273 
     46 CB         23.7476    0.3166   -9.2854 C.3       7 UNK        -0.1935 
     47 C          25.5020    1.8903  -10.2092 C.2       7 UNK         0.5018 
     48 O          25.2629    2.4304  -11.2909 O.2       7 UNK        -0.5186 
     49 N          26.7133    1.4404   -9.8565 N.am      8 UNK        -0.4240 
     50 CA         27.9083    1.5677  -10.6887 C.3       8 UNK         0.0235 
     51 CB         28.0071    0.3716  -11.6528 C.3       8 UNK        -0.2000 
     52 C          29.1521    1.6512   -9.8016 C.2       8 UNK         0.4941 
     53 O          29.2716    0.8859   -8.8436 O.2       8 UNK        -0.5273 
     54 N          30.0950    2.5285  -10.1705 N.am      9 UNK        -0.4262 
     55 CA         31.3724    2.7469   -9.4809 C.3       9 UNK         0.0264 
     56 CB         31.9107    4.1404   -9.8574 C.3       9 UNK        -0.1955 
     57 C          32.3956    1.6218   -9.7498 C.2       9 UNK         0.5031 
     58 O          33.5112    1.8874  -10.2038 O.2       9 UNK        -0.5390 
     59 N          31.9857    0.3794   -9.4786 N.am      10 UNK        -0.4204 
     60 CA         32.8061   -0.8282   -9.5403 C.3       10 UNK         0.0237 
     61 CB         31.8663   -2.0413   -9.6597 C.3       10 UNK        -0.1985 
     62 C          33.7305   -0.9459   -8.3139 C.2       10 UNK         0.4970 
     63 O          33.5625   -0.2093   -7.3396 O.2       10 UNK        -0.4914 
     64 N          34.6771   -1.8916   -8.3829 N.am      11 UNK        -0.4285 
     65 CA         35.6774   -2.1998   -7.3406 C.3       11 UNK         0.1007 
     66 C          36.7424   -1.0818   -7.1079 C.2       11 UNK         0.5703 
     67 N          36.8744   -0.0950   -7.9868 N.am      11 UNK        -0.7361 
     68 O          37.4932   -1.1265   -6.1358 O.2       11 UNK        -0.4986 
     69 C69        35.0484   -2.7109   -6.0083 C.3       12 UNK        -0.0947 
     70 S70        34.0809   -4.2482   -6.2001 S.3       12 UNK        -0.2240 
     71 C71        32.3568   -3.6605   -6.1736 C.3       12 UNK         0.0194 
     72 H72        22.7777   -4.9049   -1.3630 H         1 UNK         0.0906 
     73 H73        23.4751   -6.2907   -2.2049 H         1 UNK         0.0906 
     74 H74        23.9348   -5.9501   -0.5353 H         1 UNK         0.0906 
     75 H75        25.9607   -5.0357   -0.3967 H         1 UNK         0.3140 
     76 H76        27.7303   -3.7206   -0.6715 H         1 UNK         0.1085 
     77 H77        28.5445   -3.6716   -3.2929 H         1 UNK         0.0836 
     78 H78        27.3351   -4.8945   -3.4356 H         1 UNK         0.0836 
     79 H79        31.3925   -5.2242   -1.2411 H         1 UNK         0.0731 
     80 H80        30.2656   -4.0502   -0.6164 H         1 UNK         0.0731 
     81 H81        31.5030   -5.1161   -4.0329 H         1 UNK         0.1312 
     82 H82        32.2310   -1.0807   -5.2907 H         1 UNK         0.1406 
     83 H83        30.6952   -1.8533   -1.3674 H         1 UNK         0.1631 
     84 H84        32.5559    0.4971   -2.9112 H         1 UNK         0.0717 
     85 H85        31.0646    0.3975   -2.0101 H         1 UNK         0.0717 
     86 H86        28.9482   -0.2081   -3.5328 H         1 UNK         0.0934 
     87 H87        28.4472    1.4407   -3.3420 H         1 UNK         0.0934 
     88 H88        28.9240    0.3990   -6.1665 H         1 UNK         0.0739 
     89 H89        27.0685   -0.9117   -4.4917 H         1 UNK         0.3093 
     90 H90        24.9773   -2.1551   -7.1357 H         1 UNK         0.0818 
     91 H91        26.9350   -3.6555   -6.9647 H         1 UNK         0.0819 
     92 H92        25.6447   -4.2451   -5.9252 H         1 UNK         0.0819 
     93 H93        27.0248   -3.3968   -5.2303 H         1 UNK         0.0819 
     94 H94        24.8067   -2.4915   -4.3174 H         1 UNK         0.3041 
     95 H95        22.5837    0.2881   -3.7272 H         1 UNK         0.0784 
     96 H96        21.2606   -1.6782   -4.5033 H         1 UNK         0.0793 
     97 H97        22.3152   -2.7663   -3.6137 H         1 UNK         0.0793 
     98 H98        21.3116   -1.6022   -2.7500 H         1 UNK         0.0793 
     99 H99        23.8423   -1.6347   -1.9940 H         1 UNK         0.3024 
    100 H100       26.6251    0.3906   -1.0958 H         1 UNK         0.1171 
    101 H101       25.6629    0.0991    1.1690 H         1 UNK         0.0786 
    102 H102       24.7166    1.2710    0.2684 H         1 UNK         0.0786 
    103 H103       24.1039   -0.3627    0.4847 H         1 UNK         0.0786 
    104 H104       25.8480   -2.1115   -0.0693 H         1 UNK         0.2977 
    105 H105       25.8164    1.5262   -4.8246 H         1 UNK         0.3127 
    106 H106       26.0727    4.2452   -5.7583 H         1 UNK         0.0770 
    107 H107       23.5994    2.5897   -5.0264 H         1 UNK         0.0814 
    108 H108       23.6152    4.3261   -5.3051 H         1 UNK         0.0814 
    109 H109       24.4998    3.6517   -3.9460 H         1 UNK         0.0814 
    110 H110       24.7351    1.2333   -7.1669 H         1 UNK         0.2983 
    111 H111       23.5777    2.4410   -9.4701 H         1 UNK         0.0947 
    112 H112       24.4665   -0.4536   -9.0064 H         1 UNK         0.0806 
    113 H113       23.4146    0.0988  -10.3010 H         1 UNK         0.0806 
    114 H114       22.8809    0.2173   -8.6317 H         1 UNK         0.0806 
    115 H115       26.8433    0.9733   -8.9599 H         1 UNK         0.3000 
    116 H116       27.8428    2.4894  -11.2714 H         1 UNK         0.0850 
    117 H117       28.9045    0.4373  -12.2694 H         1 UNK         0.0810 
    118 H118       27.1520    0.3326  -12.3277 H         1 UNK         0.0810 
    119 H119       28.0501   -0.5746  -11.1114 H         1 UNK         0.0810 
    120 H120       29.9424    3.0800  -11.0030 H         1 UNK         0.3040 
    121 H121       31.1830    2.7479   -8.4047 H         1 UNK         0.0766 
    122 H122       31.1982    4.9244   -9.6002 H         1 UNK         0.0812 
    123 H123       32.1254    4.2163  -10.9241 H         1 UNK         0.0812 
    124 H124       32.8356    4.3597   -9.3219 H         1 UNK         0.0812 
    125 H125       31.0478    0.2847   -9.0945 H         1 UNK         0.3205 
    126 H126       33.4339   -0.7811  -10.4327 H         1 UNK         0.0754 
    127 H127       32.4186   -2.9818   -9.6645 H         1 UNK         0.0769 
    128 H128       31.2939   -2.0018  -10.5869 H         1 UNK         0.0769 
    129 H129       31.1523   -2.0818   -8.8364 H         1 UNK         0.0769 
    130 H130       34.7486   -2.4469   -9.2232 H         1 UNK         0.2981 
    131 H131       36.2580   -3.0274   -7.7492 H         1 UNK         0.0541 
    132 H132       36.2717   -0.0408   -8.7919 H         1 UNK         0.3459 
    133 H133       37.5750    0.6123   -7.8313 H         1 UNK         0.3459 
    134 H134       35.8326   -2.9420   -5.2857 H         1 UNK         0.0612 
    135 H135       34.4452   -1.9348   -5.5407 H         1 UNK         0.0612 
    136 H136       32.2253   -2.8822   -6.9211 H         1 UNK         0.0624 
    137 H137       31.7064   -4.4814   -6.4787 H         1 UNK         0.0624 
@<TRIPOS>BOND
     1    1    2 1    
     2    1   72 1    
     3    1   73 1    
     4    1   74 1    
     5    2    3 2    
     6    2    4 am   BACKBONE|DICT|INTERRES
     7    4    5 1    
     8    4   75 1    
     9    5    6 1    
    10    5   35 1    
    11    5   76 1    
    12    6    7 1    
    13    6   77 1    
    14    6   78 1    
    15    7    8 1    
    16    8    9 1    
    17    8   79 1    
    18    8   80 1    
    19    9   10 ar   
    20    9   14 ar   
    21   10   11 ar   
    22   10   81 1    
    23   11   12 ar   
    24   11   71 1    
    25   12   13 ar   
    26   12   82 1    
    27   13   14 ar   
    28   13   15 1    
    29   14   83 1    
    30   15   16 1    
    31   15   84 1    
    32   15   85 1    
    33   16   17 1    
    34   17   18 1    
    35   17   86 1    
    36   17   87 1    
    37   18   19 1    
    38   18   37 1    
    39   18   88 1    
    40   19   20 am   BACKBONE|DICT|INTERRES
    41   19   89 1    
    42   20   21 2    
    43   20   22 1    
    44   22   23 1    
    45   22   24 1    
    46   22   90 1    
    47   23   91 1    
    48   23   92 1    
    49   23   93 1    
    50   24   25 am   BACKBONE|DICT|INTERRES
    51   24   94 1    
    52   25   26 2    
    53   25   27 1    
    54   27   28 1    
    55   27   29 1    
    56   27   95 1    
    57   28   96 1    
    58   28   97 1    
    59   28   98 1    
    60   29   30 am   BACKBONE|DICT|INTERRES
    61   29   99 1    
    62   30   31 2    
    63   30   32 1    
    64   32   33 1    
    65   32   34 1    
    66   32  100 1    
    67   33  101 1    
    68   33  102 1    
    69   33  103 1    
    70   34   35 am   BACKBONE|DICT|INTERRES
    71   34  104 1    
    72   35   36 2    
    73   37   38 2    
    74   37   39 am   BACKBONE|DICT|INTERRES
    75   39   40 1    
    76   39  105 1    
    77   40   41 1    
    78   40   42 1    
    79   40  106 1    
    80   41  107 1    
    81   41  108 1    
    82   41  109 1    
    83   42   43 2    
    84   42   44 am   BACKBONE|DICT|INTERRES
    85   44   45 1    
    86   44  110 1    
    87   45   46 1    
    88   45   47 1    
    89   45  111 1    
    90   46  112 1    
    91   46  113 1    
    92   46  114 1    
    93   47   48 2    
    94   47   49 am   BACKBONE|DICT|INTERRES
    95   49   50 1    
    96   49  115 1    
    97   50   51 1    
    98   50   52 1    
    99   50  116 1    
   100   51  117 1    
   101   51  118 1    
   102   51  119 1    
   103   52   53 2    
   104   52   54 am   BACKBONE|DICT|INTERRES
   105   54   55 1    
   106   54  120 1    
   107   55   56 1    
   108   55   57 1    
   109   55  121 1    
   110   56  122 1    
   111   56  123 1    
   112   56  124 1    
   113   57   58 2    
   114   57   59 am   BACKBONE|DICT|INTERRES
   115   59   60 1    
   116   59  125 1    
   117   60   61 1    
   118   60   62 1    
   119   60  126 1    
   120   61  127 1    
   121   61  128 1    
   122   61  129 1    
   123   62   63 2    
   124   62   64 am   BACKBONE|DICT|INTERRES
   125   64   65 1    
   126   64  130 1    
   127   65   66 1    
   128   65   69 1    
   129   65  131 1    
   130   66   67 am   BACKBONE|DICT|INTERRES
   131   66   68 2    
   132   67  132 1    
   133   67  133 1    
   134   69   70 1    
   135   69  134 1    
   136   69  135 1    
   137   70   71 1    
   138   71  136 1    
   139   71  137 1    
@<TRIPOS>SUBSTRUCTURE
     1 UNK         1 GROUP             0       ****    0 ROOT    
