@<TRIPOS>MOLECULE
3R137
137   139    1
SMALL
USER_CHARGES


@<TRIPOS>ATOM
      1 CA         31.0397    1.6051   -0.1538 C.3       0 UNK        -0.2020 
      2 C          30.0526    0.6255   -0.7709 C.2       0 UNK         0.4855 
      3 O          29.3123    1.0023   -1.6770 O.2       0 UNK        -0.5197 
      4 N          30.0464   -0.6229   -0.2843 N.am      1 UNK        -0.4892 
      5 CA         29.1837   -1.7296   -0.7191 C.3       1 UNK         0.0835 
      6 C6         29.5462   -3.0105    0.0764 C.3       12 UNK        -0.0855 
      7 S7         28.7321   -4.5334   -0.5171 S.3       12 UNK        -0.2931 
      8 C8         30.0656   -5.3224   -1.4691 C.3       12 UNK         0.0378 
      9 C9         30.2415   -4.6624   -2.8270 C.ar      12 UNK        -0.0802 
     10 C10        31.2748   -3.7469   -3.0484 C.ar      12 UNK        -0.0944 
     11 C11        31.4496   -3.1660   -4.3088 C.ar      12 UNK        -0.0787 
     12 C12        30.5699   -3.4967   -5.3455 C.ar      12 UNK        -0.0862 
     13 C13        29.5284   -4.4077   -5.1332 C.ar      12 UNK        -0.0733 
     14 C14        29.3754   -4.9908   -3.8728 C.ar      12 UNK        -0.0832 
     15 C15        28.6002   -4.7960   -6.2761 C.3       12 UNK         0.0240 
     16 S16        26.8397   -4.5086   -5.8837 S.3       12 UNK        -0.2522 
     17 C17        26.1814   -4.2041   -7.5620 C.3       12 UNK        -0.0967 
     18 CA         25.9709   -2.7126   -7.9436 C.3       5 UNK         0.0660 
     19 N          24.7125   -2.1539   -7.4387 N.am      5 UNK        -0.4015 
     20 C          24.1931   -0.9902   -7.8614 C.2       4 UNK         0.4946 
     21 O          24.7847   -0.2197   -8.6181 O.2       4 UNK        -0.5353 
     22 CA         22.7785   -0.6076   -7.3936 C.3       4 UNK         0.0277 
     23 CB         21.7974   -0.6976   -8.5740 C.3       4 UNK        -0.1981 
     24 N          22.2738   -1.4453   -6.3009 N.am      4 UNK        -0.4209 
     25 C          22.4779   -1.2865   -4.9856 C.2       3 UNK         0.4942 
     26 O          21.9869   -2.0647   -4.1669 O.2       3 UNK        -0.5208 
     27 CA         23.2999   -0.0830   -4.4732 C.3       3 UNK         0.0250 
     28 CB         22.3950    1.1444   -4.2667 C.3       3 UNK        -0.1990 
     29 N          23.9487   -0.4012   -3.2025 N.am      3 UNK        -0.4232 
     30 C          25.0150   -1.1988   -3.0790 C.2       2 UNK         0.4993 
     31 O          25.6281   -1.6828   -4.0355 O.2       2 UNK        -0.5286 
     32 CA         25.4444   -1.5232   -1.6446 C.3       2 UNK         0.0209 
     33 CB         24.7210   -2.7802   -1.1313 C.3       2 UNK        -0.1931 
     34 N          26.8863   -1.7435   -1.5994 N.am      2 UNK        -0.4546 
     35 C          27.6825   -1.3844   -0.5849 C.2       1 UNK         0.5154 
     36 O          27.2765   -0.8330    0.4427 O.2       1 UNK        -0.5181 
     37 C          27.1894   -1.8118   -7.6554 C.2       5 UNK         0.5014 
     38 O          27.9831   -1.5762   -8.5653 O.2       5 UNK        -0.5248 
     39 N          27.2999   -1.2885   -6.4251 N.am      6 UNK        -0.4434 
     40 CA         28.3873   -0.3924   -6.0299 C.3       6 UNK         0.0363 
     41 CB         28.4503   -0.2855   -4.5041 C.3       6 UNK        -0.1936 
     42 C          28.2710    1.0000   -6.6635 C.2       6 UNK         0.5081 
     43 O          29.2956    1.6277   -6.9207 O.2       6 UNK        -0.5248 
     44 N          27.0393    1.4495   -6.9430 N.am      7 UNK        -0.4718 
     45 CA         26.7724    2.6941   -7.6677 C.3       7 UNK         0.0273 
     46 CB         25.2860    3.0672   -7.5423 C.3       7 UNK        -0.1935 
     47 C          27.2041    2.6000   -9.1412 C.2       7 UNK         0.5018 
     48 O          27.7582    3.5637   -9.6704 O.2       7 UNK        -0.5186 
     49 N          26.9731    1.4337   -9.7606 N.am      8 UNK        -0.4240 
     50 CA         27.4297    1.1074  -11.1109 C.3       8 UNK         0.0235 
     51 CB         26.6672   -0.1245  -11.6265 C.3       8 UNK        -0.2000 
     52 C          28.9509    0.8841  -11.1808 C.2       8 UNK         0.4941 
     53 O          29.5991    1.4327  -12.0729 O.2       8 UNK        -0.5273 
     54 N          29.4918    0.0789  -10.2546 N.am      9 UNK        -0.4262 
     55 CA         30.9066   -0.3032  -10.2103 C.3       9 UNK         0.0264 
     56 CB         31.0717   -1.5471   -9.3203 C.3       9 UNK        -0.1955 
     57 C          31.8479    0.8097   -9.7231 C.2       9 UNK         0.5031 
     58 O          33.0369    0.7564  -10.0383 O.2       9 UNK        -0.5390 
     59 N          31.3361    1.7480   -8.9136 N.am      10 UNK        -0.4204 
     60 CA         32.0247    2.8546   -8.2293 C.3       10 UNK         0.0237 
     61 CB         32.7432    3.7865   -9.2259 C.3       10 UNK        -0.1985 
     62 C          32.9619    2.4240   -7.0818 C.2       10 UNK         0.4970 
     63 O          33.2132    3.2367   -6.1911 O.2       10 UNK        -0.4914 
     64 N          33.4499    1.1768   -7.1110 N.am      11 UNK        -0.4285 
     65 CA         34.3299    0.5400   -6.1151 C.3       11 UNK         0.1007 
     66 C          35.7677    1.1410   -6.0423 C.2       11 UNK         0.5703 
     67 N          36.2197    1.8958   -7.0373 N.am      11 UNK        -0.7361 
     68 O          36.5031    0.8936   -5.0891 O.2       11 UNK        -0.4986 
     69 C69        33.6688    0.3845   -4.7128 C.3       12 UNK        -0.0947 
     70 S70        32.0703   -0.4964   -4.7486 S.3       12 UNK        -0.2240 
     71 C71        32.6165   -2.2198   -4.5596 C.3       12 UNK         0.0194 
     72 H72        30.5073    2.4547    0.2730 H         1 UNK         0.0906 
     73 H73        31.6344    1.1459    0.6357 H         1 UNK         0.0906 
     74 H74        31.7214    1.9789   -0.9175 H         1 UNK         0.0906 
     75 H75        30.6656   -0.8405    0.4831 H         1 UNK         0.3140 
     76 H76        29.4032   -1.9003   -1.7750 H         1 UNK         0.1085 
     77 H77        30.6261   -3.1653    0.0565 H         1 UNK         0.0836 
     78 H78        29.2911   -2.8843    1.1307 H         1 UNK         0.0836 
     79 H79        29.8187   -6.3760   -1.6090 H         1 UNK         0.0731 
     80 H80        30.9965   -5.3057   -0.9002 H         1 UNK         0.0731 
     81 H81        31.9526   -3.4987   -2.2432 H         1 UNK         0.1312 
     82 H82        30.7084   -3.0514   -6.3211 H         1 UNK         0.1406 
     83 H83        28.5775   -5.7020   -3.7053 H         1 UNK         0.1631 
     84 H84        28.7440   -5.8504   -6.5152 H         1 UNK         0.0717 
     85 H85        28.8718   -4.2384   -7.1737 H         1 UNK         0.0717 
     86 H86        26.8465   -4.6719   -8.2902 H         1 UNK         0.0934 
     87 H87        25.2409   -4.7484   -7.6600 H         1 UNK         0.0934 
     88 H88        25.8602   -2.7038   -9.0308 H         1 UNK         0.0739 
     89 H89        24.1932   -2.7192   -6.7832 H         1 UNK         0.3093 
     90 H90        22.8101    0.4373   -7.0840 H         1 UNK         0.0818 
     91 H91        20.7987   -0.3682   -8.2862 H         1 UNK         0.0819 
     92 H92        22.1187   -0.0611   -9.4001 H         1 UNK         0.0819 
     93 H93        21.7178   -1.7147   -8.9600 H         1 UNK         0.0819 
     94 H94        21.7063   -2.2301   -6.5880 H         1 UNK         0.3041 
     95 H95        24.0855    0.1698   -5.1861 H         1 UNK         0.0784 
     96 H96        21.8914    1.4319   -5.1899 H         1 UNK         0.0793 
     97 H97        21.6186    0.9516   -3.5250 H         1 UNK         0.0793 
     98 H98        22.9700    2.0084   -3.9325 H         1 UNK         0.0793 
     99 H99        23.4732   -0.0884   -2.3685 H         1 UNK         0.3024 
    100 H100       25.1837   -0.6721   -1.0107 H         1 UNK         0.1171 
    101 H101       24.9934   -3.0007   -0.0989 H         1 UNK         0.0786 
    102 H102       23.6382   -2.6515   -1.1620 H         1 UNK         0.0786 
    103 H103       24.9635   -3.6559   -1.7352 H         1 UNK         0.0786 
    104 H104       27.2748   -2.1672   -2.4323 H         1 UNK         0.2977 
    105 H105       26.6296   -1.5477   -5.7035 H         1 UNK         0.3127 
    106 H106       29.3278   -0.8299   -6.3700 H         1 UNK         0.0770 
    107 H107       27.5514    0.1673   -4.0866 H         1 UNK         0.0814 
    108 H108       29.2912    0.3384   -4.2020 H         1 UNK         0.0814 
    109 H109       28.5918   -1.2639   -4.0463 H         1 UNK         0.0814 
    110 H110       26.2519    0.8508   -6.7440 H         1 UNK         0.2983 
    111 H111       27.3609    3.4879   -7.2017 H         1 UNK         0.0947 
    112 H112       25.0875    4.0262   -8.0225 H         1 UNK         0.0806 
    113 H113       24.9858    3.1604   -6.4985 H         1 UNK         0.0806 
    114 H114       24.6366    2.3305   -8.0147 H         1 UNK         0.0806 
    115 H115       26.4485    0.7184   -9.2653 H         1 UNK         0.3000 
    116 H116       27.1875    1.9498  -11.7626 H         1 UNK         0.0850 
    117 H117       26.9736   -0.3764  -12.6426 H         1 UNK         0.0810 
    118 H118       25.5922    0.0563  -11.6461 H         1 UNK         0.0810 
    119 H119       26.8440   -1.0023  -11.0041 H         1 UNK         0.0810 
    120 H120       28.8767   -0.3888   -9.5887 H         1 UNK         0.3040 
    121 H121       31.2153   -0.5695  -11.2235 H         1 UNK         0.0766 
    122 H122       30.7868   -1.3432   -8.2877 H         1 UNK         0.0812 
    123 H123       32.1073   -1.8896   -9.3116 H         1 UNK         0.0812 
    124 H124       30.4607   -2.3758   -9.6785 H         1 UNK         0.0812 
    125 H125       30.3734    1.6284   -8.6114 H         1 UNK         0.3205 
    126 H126       31.2286    3.4356   -7.7609 H         1 UNK         0.0754 
    127 H127       33.5908    3.2987   -9.7075 H         1 UNK         0.0769 
    128 H128       32.0641    4.1291  -10.0067 H         1 UNK         0.0769 
    129 H129       33.1279    4.6725   -8.7191 H         1 UNK         0.0769 
    130 H130       33.2521    0.6270   -7.9365 H         1 UNK         0.2981 
    131 H131       34.4901   -0.4689   -6.4957 H         1 UNK         0.0541 
    132 H132       35.6356    2.0940   -7.8336 H         1 UNK         0.3459 
    133 H133       37.1540    2.2702   -6.9880 H         1 UNK         0.3459 
    134 H134       34.3337   -0.1441   -4.0280 H         1 UNK         0.0612 
    135 H135       33.5012    1.3639   -4.2628 H         1 UNK         0.0612 
    136 H136       33.1484   -2.5271   -5.4610 H         1 UNK         0.0624 
    137 H137       33.3341   -2.2823   -3.7402 H         1 UNK         0.0624 
@<TRIPOS>BOND
     1    1    2 1    
     2    1   72 1    
     3    1   73 1    
     4    1   74 1    
     5    2    3 2    
     6    2    4 am   BACKBONE|DICT|INTERRES
     7    4    5 1    
     8    4   75 1    
     9    5    6 1    
    10    5   35 1    
    11    5   76 1    
    12    6    7 1    
    13    6   77 1    
    14    6   78 1    
    15    7    8 1    
    16    8    9 1    
    17    8   79 1    
    18    8   80 1    
    19    9   10 ar   
    20    9   14 ar   
    21   10   11 ar   
    22   10   81 1    
    23   11   12 ar   
    24   11   71 1    
    25   12   13 ar   
    26   12   82 1    
    27   13   14 ar   
    28   13   15 1    
    29   14   83 1    
    30   15   16 1    
    31   15   84 1    
    32   15   85 1    
    33   16   17 1    
    34   17   18 1    
    35   17   86 1    
    36   17   87 1    
    37   18   19 1    
    38   18   37 1    
    39   18   88 1    
    40   19   20 am   BACKBONE|DICT|INTERRES
    41   19   89 1    
    42   20   21 2    
    43   20   22 1    
    44   22   23 1    
    45   22   24 1    
    46   22   90 1    
    47   23   91 1    
    48   23   92 1    
    49   23   93 1    
    50   24   25 am   BACKBONE|DICT|INTERRES
    51   24   94 1    
    52   25   26 2    
    53   25   27 1    
    54   27   28 1    
    55   27   29 1    
    56   27   95 1    
    57   28   96 1    
    58   28   97 1    
    59   28   98 1    
    60   29   30 am   BACKBONE|DICT|INTERRES
    61   29   99 1    
    62   30   31 2    
    63   30   32 1    
    64   32   33 1    
    65   32   34 1    
    66   32  100 1    
    67   33  101 1    
    68   33  102 1    
    69   33  103 1    
    70   34   35 am   BACKBONE|DICT|INTERRES
    71   34  104 1    
    72   35   36 2    
    73   37   38 2    
    74   37   39 am   BACKBONE|DICT|INTERRES
    75   39   40 1    
    76   39  105 1    
    77   40   41 1    
    78   40   42 1    
    79   40  106 1    
    80   41  107 1    
    81   41  108 1    
    82   41  109 1    
    83   42   43 2    
    84   42   44 am   BACKBONE|DICT|INTERRES
    85   44   45 1    
    86   44  110 1    
    87   45   46 1    
    88   45   47 1    
    89   45  111 1    
    90   46  112 1    
    91   46  113 1    
    92   46  114 1    
    93   47   48 2    
    94   47   49 am   BACKBONE|DICT|INTERRES
    95   49   50 1    
    96   49  115 1    
    97   50   51 1    
    98   50   52 1    
    99   50  116 1    
   100   51  117 1    
   101   51  118 1    
   102   51  119 1    
   103   52   53 2    
   104   52   54 am   BACKBONE|DICT|INTERRES
   105   54   55 1    
   106   54  120 1    
   107   55   56 1    
   108   55   57 1    
   109   55  121 1    
   110   56  122 1    
   111   56  123 1    
   112   56  124 1    
   113   57   58 2    
   114   57   59 am   BACKBONE|DICT|INTERRES
   115   59   60 1    
   116   59  125 1    
   117   60   61 1    
   118   60   62 1    
   119   60  126 1    
   120   61  127 1    
   121   61  128 1    
   122   61  129 1    
   123   62   63 2    
   124   62   64 am   BACKBONE|DICT|INTERRES
   125   64   65 1    
   126   64  130 1    
   127   65   66 1    
   128   65   69 1    
   129   65  131 1    
   130   66   67 am   BACKBONE|DICT|INTERRES
   131   66   68 2    
   132   67  132 1    
   133   67  133 1    
   134   69   70 1    
   135   69  134 1    
   136   69  135 1    
   137   70   71 1    
   138   71  136 1    
   139   71  137 1    
@<TRIPOS>SUBSTRUCTURE
     1 UNK         1 GROUP             0       ****    0 ROOT    
