@<TRIPOS>MOLECULE
3R137
137   139    1
SMALL
USER_CHARGES


@<TRIPOS>ATOM
      1 CA         29.7505   -6.0057    0.7885 C.3       0 UNK        -0.2020 
      2 C          29.1147   -4.8273    0.0675 C.2       0 UNK         0.4855 
      3 O          29.4249   -4.5931   -1.1004 O.2       0 UNK        -0.5197 
      4 N          28.2284   -4.0935    0.7564 N.am      1 UNK        -0.4892 
      5 CA         27.4858   -2.8981    0.3167 C.3       1 UNK         0.0835 
      6 C6         28.3795   -1.7154   -0.1386 C.3       12 UNK        -0.0855 
      7 S7         29.6044   -1.1814    1.1141 S.3       12 UNK        -0.2931 
      8 C8         31.2083   -1.6575    0.3690 C.3       12 UNK         0.0378 
      9 C9         31.3302   -1.2319   -1.0894 C.ar      12 UNK        -0.0802 
     10 C10        31.5352   -2.1928   -2.0849 C.ar      12 UNK        -0.0944 
     11 C11        31.5122   -1.8328   -3.4350 C.ar      12 UNK        -0.0787 
     12 C12        31.2913   -0.4980   -3.7872 C.ar      12 UNK        -0.0862 
     13 C13        31.1028    0.4733   -2.7993 C.ar      12 UNK        -0.0733 
     14 C14        31.1494    0.1056   -1.4523 C.ar      12 UNK        -0.0832 
     15 C15        30.7760    1.9070   -3.1863 C.3       12 UNK         0.0240 
     16 S16        29.0753    2.3765   -2.7130 S.3       12 UNK        -0.2522 
     17 C17        28.0583    1.0720   -3.4922 C.3       12 UNK        -0.0967 
     18 CA         27.8722    1.2791   -5.0147 C.3       5 UNK         0.0660 
     19 N          27.5180    0.0290   -5.6910 N.am      5 UNK        -0.4015 
     20 C          27.5525   -0.1412   -7.0225 C.2       4 UNK         0.4946 
     21 O          27.9306    0.7228   -7.8114 O.2       4 UNK        -0.5353 
     22 CA         27.0321   -1.4773   -7.5842 C.3       4 UNK         0.0277 
     23 CB         28.1790   -2.4956   -7.6813 C.3       4 UNK        -0.1981 
     24 N          25.9336   -2.0497   -6.8026 N.am      4 UNK        -0.4209 
     25 C          24.7817   -1.4261   -6.5133 C.2       3 UNK         0.4942 
     26 O          24.4617   -0.3373   -6.9894 O.2       3 UNK        -0.5208 
     27 CA         23.8573   -2.0844   -5.4717 C.3       3 UNK         0.0250 
     28 CB         22.6375   -2.7128   -6.1641 C.3       3 UNK        -0.1990 
     29 N          24.4991   -3.0911   -4.6138 N.am      3 UNK        -0.4232 
     30 C          25.5563   -2.8935   -3.8112 C.2       2 UNK         0.4993 
     31 O          26.1733   -1.8258   -3.7332 O.2       2 UNK        -0.5286 
     32 CA         26.0452   -4.1355   -3.0458 C.3       2 UNK         0.0209 
     33 CB         26.8893   -5.0290   -3.9711 C.3       2 UNK        -0.1931 
     34 N          26.8519   -3.7998   -1.8744 N.am      2 UNK        -0.4546 
     35 C          26.4189   -3.2090   -0.7555 C.2       1 UNK         0.5154 
     36 O          25.2384   -2.9260   -0.5437 O.2       1 UNK        -0.5181 
     37 C          26.8629    2.4039   -5.3258 C.2       5 UNK         0.5014 
     38 O          27.2779    3.5263   -5.6160 O.2       5 UNK        -0.5248 
     39 N          25.5611    2.0774   -5.3072 N.am      6 UNK        -0.4434 
     40 CA         24.4713    2.9959   -5.6540 C.3       6 UNK         0.0363 
     41 CB         23.1242    2.3886   -5.2300 C.3       6 UNK        -0.1936 
     42 C          24.4628    3.3616   -7.1485 C.2       6 UNK         0.5081 
     43 O          24.1678    4.5062   -7.4920 O.2       6 UNK        -0.5248 
     44 N          24.8242    2.3960   -8.0044 N.am      7 UNK        -0.4718 
     45 CA         25.0258    2.5812   -9.4447 C.3       7 UNK         0.0273 
     46 CB         25.0283    1.2018  -10.1237 C.3       7 UNK        -0.1935 
     47 C          26.3155    3.3507   -9.7981 C.2       7 UNK         0.5018 
     48 O          26.4585    3.7674  -10.9483 O.2       7 UNK        -0.5186 
     49 N          27.2252    3.5070   -8.8234 N.am      8 UNK        -0.4240 
     50 CA         28.5634    4.1013   -8.9223 C.3       8 UNK         0.0235 
     51 CB         28.4793    5.6085   -9.2453 C.3       8 UNK        -0.2000 
     52 C          29.4921    3.3231   -9.8764 C.2       8 UNK         0.4941 
     53 O          30.2689    3.9313  -10.6162 O.2       8 UNK        -0.5273 
     54 N          29.3944    1.9893   -9.8392 N.am      9 UNK        -0.4262 
     55 CA         30.2247    1.0588  -10.5981 C.3       9 UNK         0.0264 
     56 CB         29.3434   -0.1122  -11.0644 C.3       9 UNK        -0.1955 
     57 C          31.3689    0.5461   -9.7137 C.2       9 UNK         0.5031 
     58 O          31.2236    0.4791   -8.4899 O.2       9 UNK        -0.5390 
     59 N          32.4729    0.1293  -10.3465 N.am      10 UNK        -0.4204 
     60 CA         33.6691   -0.4234   -9.6971 C.3       10 UNK         0.0237 
     61 CB         34.8733   -0.2508  -10.6429 C.3       10 UNK        -0.1985 
     62 C          33.4800   -1.8852   -9.2346 C.2       10 UNK         0.4970 
     63 O          34.2995   -2.7462   -9.5594 O.2       10 UNK        -0.4914 
     64 N          32.3908   -2.1333   -8.4982 N.am      11 UNK        -0.4285 
     65 CA         31.9802   -3.4251   -7.9208 C.3       11 UNK         0.1007 
     66 C          31.6357   -4.5376   -8.9581 C.2       11 UNK         0.5703 
     67 N          31.3849   -4.2087  -10.2198 N.am      11 UNK        -0.7361 
     68 O          31.5553   -5.7137   -8.6111 O.2       11 UNK        -0.4986 
     69 C69        32.9295   -3.9183   -6.7891 C.3       12 UNK        -0.0947 
     70 S70        33.1828   -2.6749   -5.4776 S.3       12 UNK        -0.2240 
     71 C71        31.6547   -2.8929   -4.5155 C.3       12 UNK         0.0194 
     72 H72        30.8333   -5.8865    0.8155 H         1 UNK         0.0906 
     73 H73        29.3942   -6.0996    1.8142 H         1 UNK         0.0906 
     74 H74        29.5229   -6.9330    0.2634 H         1 UNK         0.0906 
     75 H75        28.0198   -4.3750    1.7046 H         1 UNK         0.3140 
     76 H76        26.9373   -2.5609    1.1980 H         1 UNK         0.1085 
     77 H77        27.7583   -0.8461   -0.3639 H         1 UNK         0.0836 
     78 H78        28.8716   -1.9623   -1.0785 H         1 UNK         0.0836 
     79 H79        31.3293   -2.7372    0.4669 H         1 UNK         0.0731 
     80 H80        32.0169   -1.2039    0.9435 H         1 UNK         0.0731 
     81 H81        31.6623   -3.2313   -1.8105 H         1 UNK         0.1312 
     82 H82        31.2420   -0.2239   -4.8327 H         1 UNK         0.1406 
     83 H83        30.9696    0.8493   -0.6876 H         1 UNK         0.1631 
     84 H84        30.9054    2.0603   -4.2586 H         1 UNK         0.0717 
     85 H85        31.4788    2.5811   -2.6948 H         1 UNK         0.0717 
     86 H86        28.5182    0.1035   -3.2923 H         1 UNK         0.0934 
     87 H87        27.0939    1.0293   -2.9818 H         1 UNK         0.0934 
     88 H88        28.8325    1.5866   -5.4342 H         1 UNK         0.0739 
     89 H89        27.1580   -0.7176   -5.1030 H         1 UNK         0.3093 
     90 H90        26.6547   -1.2880   -8.5904 H         1 UNK         0.0818 
     91 H91        28.5673   -2.7620   -6.6974 H         1 UNK         0.0819 
     92 H92        27.8578   -3.4118   -8.1770 H         1 UNK         0.0819 
     93 H93        29.0089   -2.0899   -8.2611 H         1 UNK         0.0819 
     94 H94        26.1027   -2.9455   -6.3709 H         1 UNK         0.3041 
     95 H95        23.5032   -1.2846   -4.8181 H         1 UNK         0.0784 
     96 H96        22.1206   -1.9803   -6.7861 H         1 UNK         0.0793 
     97 H97        22.9233   -3.5441   -6.8099 H         1 UNK         0.0793 
     98 H98        21.9139   -3.0830   -5.4375 H         1 UNK         0.0793 
     99 H99        24.0791   -4.0099   -4.6301 H         1 UNK         0.3024 
    100 H100       25.1728   -4.6957   -2.7015 H         1 UNK         0.1171 
    101 H101       27.2241   -5.9287   -3.4539 H         1 UNK         0.0786 
    102 H102       26.3185   -5.3543   -4.8418 H         1 UNK         0.0786 
    103 H103       27.7753   -4.5068   -4.3357 H         1 UNK         0.0786 
    104 H104       27.8442   -4.0217   -1.9142 H         1 UNK         0.2977 
    105 H105       25.3024    1.1203   -5.1156 H         1 UNK         0.3127 
    106 H106       24.6193    3.9193   -5.0897 H         1 UNK         0.0770 
    107 H107       22.9094    1.4612   -5.7615 H         1 UNK         0.0814 
    108 H108       22.3056    3.0784   -5.4396 H         1 UNK         0.0814 
    109 H109       23.1021    2.1769   -4.1609 H         1 UNK         0.0814 
    110 H110       24.9638    1.4578   -7.6389 H         1 UNK         0.2983 
    111 H111       24.1845    3.1570   -9.8366 H         1 UNK         0.0947 
    112 H112       25.0825    1.3006  -11.2087 H         1 UNK         0.0806 
    113 H113       24.1224    0.6407   -9.8930 H         1 UNK         0.0806 
    114 H114       25.8837    0.6039   -9.8098 H         1 UNK         0.0806 
    115 H115       27.0066    3.0983   -7.9237 H         1 UNK         0.3000 
    116 H116       29.0062    4.0032   -7.9299 H         1 UNK         0.0850 
    117 H117       29.4623    6.0766   -9.1815 H         1 UNK         0.0810 
    118 H118       27.8278    6.1277   -8.5423 H         1 UNK         0.0810 
    119 H119       28.0996    5.7878  -10.2515 H         1 UNK         0.0810 
    120 H120       28.8024    1.5660   -9.1229 H         1 UNK         0.3040 
    121 H121       30.6449    1.5561  -11.4748 H         1 UNK         0.0766 
    122 H122       29.9188   -0.8355  -11.6434 H         1 UNK         0.0812 
    123 H123       28.8999   -0.6437  -10.2221 H         1 UNK         0.0812 
    124 H124       28.5296    0.2373  -11.7001 H         1 UNK         0.0812 
    125 H125       32.4970    0.1777  -11.3554 H         1 UNK         0.3205 
    126 H126       33.8730    0.1627   -8.7981 H         1 UNK         0.0754 
    127 H127       35.7952   -0.5932  -10.1706 H         1 UNK         0.0769 
    128 H128       35.0213    0.7957  -10.9106 H         1 UNK         0.0769 
    129 H129       34.7479   -0.8196  -11.5652 H         1 UNK         0.0769 
    130 H130       31.7919   -1.3390   -8.2895 H         1 UNK         0.2981 
    131 H131       31.0202   -3.2184   -7.4517 H         1 UNK         0.0541 
    132 H132       31.4488   -3.2508  -10.5213 H         1 UNK         0.3459 
    133 H133       31.1516   -4.9332  -10.8802 H         1 UNK         0.3459 
    134 H134       32.5421   -4.8263   -6.3235 H         1 UNK         0.0612 
    135 H135       33.9047   -4.1821   -7.2009 H         1 UNK         0.0612 
    136 H136       30.7894   -2.8324   -5.1758 H         1 UNK         0.0624 
    137 H137       31.6453   -3.8945   -4.0826 H         1 UNK         0.0624 
@<TRIPOS>BOND
     1    1    2 1    
     2    1   72 1    
     3    1   73 1    
     4    1   74 1    
     5    2    3 2    
     6    2    4 am   BACKBONE|DICT|INTERRES
     7    4    5 1    
     8    4   75 1    
     9    5    6 1    
    10    5   35 1    
    11    5   76 1    
    12    6    7 1    
    13    6   77 1    
    14    6   78 1    
    15    7    8 1    
    16    8    9 1    
    17    8   79 1    
    18    8   80 1    
    19    9   10 ar   
    20    9   14 ar   
    21   10   11 ar   
    22   10   81 1    
    23   11   12 ar   
    24   11   71 1    
    25   12   13 ar   
    26   12   82 1    
    27   13   14 ar   
    28   13   15 1    
    29   14   83 1    
    30   15   16 1    
    31   15   84 1    
    32   15   85 1    
    33   16   17 1    
    34   17   18 1    
    35   17   86 1    
    36   17   87 1    
    37   18   19 1    
    38   18   37 1    
    39   18   88 1    
    40   19   20 am   BACKBONE|DICT|INTERRES
    41   19   89 1    
    42   20   21 2    
    43   20   22 1    
    44   22   23 1    
    45   22   24 1    
    46   22   90 1    
    47   23   91 1    
    48   23   92 1    
    49   23   93 1    
    50   24   25 am   BACKBONE|DICT|INTERRES
    51   24   94 1    
    52   25   26 2    
    53   25   27 1    
    54   27   28 1    
    55   27   29 1    
    56   27   95 1    
    57   28   96 1    
    58   28   97 1    
    59   28   98 1    
    60   29   30 am   BACKBONE|DICT|INTERRES
    61   29   99 1    
    62   30   31 2    
    63   30   32 1    
    64   32   33 1    
    65   32   34 1    
    66   32  100 1    
    67   33  101 1    
    68   33  102 1    
    69   33  103 1    
    70   34   35 am   BACKBONE|DICT|INTERRES
    71   34  104 1    
    72   35   36 2    
    73   37   38 2    
    74   37   39 am   BACKBONE|DICT|INTERRES
    75   39   40 1    
    76   39  105 1    
    77   40   41 1    
    78   40   42 1    
    79   40  106 1    
    80   41  107 1    
    81   41  108 1    
    82   41  109 1    
    83   42   43 2    
    84   42   44 am   BACKBONE|DICT|INTERRES
    85   44   45 1    
    86   44  110 1    
    87   45   46 1    
    88   45   47 1    
    89   45  111 1    
    90   46  112 1    
    91   46  113 1    
    92   46  114 1    
    93   47   48 2    
    94   47   49 am   BACKBONE|DICT|INTERRES
    95   49   50 1    
    96   49  115 1    
    97   50   51 1    
    98   50   52 1    
    99   50  116 1    
   100   51  117 1    
   101   51  118 1    
   102   51  119 1    
   103   52   53 2    
   104   52   54 am   BACKBONE|DICT|INTERRES
   105   54   55 1    
   106   54  120 1    
   107   55   56 1    
   108   55   57 1    
   109   55  121 1    
   110   56  122 1    
   111   56  123 1    
   112   56  124 1    
   113   57   58 2    
   114   57   59 am   BACKBONE|DICT|INTERRES
   115   59   60 1    
   116   59  125 1    
   117   60   61 1    
   118   60   62 1    
   119   60  126 1    
   120   61  127 1    
   121   61  128 1    
   122   61  129 1    
   123   62   63 2    
   124   62   64 am   BACKBONE|DICT|INTERRES
   125   64   65 1    
   126   64  130 1    
   127   65   66 1    
   128   65   69 1    
   129   65  131 1    
   130   66   67 am   BACKBONE|DICT|INTERRES
   131   66   68 2    
   132   67  132 1    
   133   67  133 1    
   134   69   70 1    
   135   69  134 1    
   136   69  135 1    
   137   70   71 1    
   138   71  136 1    
   139   71  137 1    
@<TRIPOS>SUBSTRUCTURE
     1 UNK         1 GROUP             0       ****    0 ROOT    
