@<TRIPOS>MOLECULE
3R137
137   139    1
SMALL
USER_CHARGES


@<TRIPOS>ATOM
      1 CA         27.7480   -4.1876    3.7255 C.3       0 UNK        -0.2020 
      2 C          28.5092   -3.3351    2.7212 C.2       0 UNK         0.4855 
      3 O          29.7048   -3.0991    2.8989 O.2       0 UNK        -0.5197 
      4 N          27.8268   -2.8677    1.6729 N.am      1 UNK        -0.4892 
      5 CA         28.3716   -2.0287    0.6064 C.3       1 UNK         0.0835 
      6 C6         29.2598   -2.8065   -0.4034 C.3       12 UNK        -0.0855 
      7 S7         28.4966   -4.3138   -1.1001 S.3       12 UNK        -0.2931 
      8 C8         29.9296   -5.0614   -1.9385 C.3       12 UNK         0.0378 
      9 C9         30.1906   -4.4026   -3.2848 C.ar      12 UNK        -0.0802 
     10 C10        31.0314   -3.2885   -3.3816 C.ar      12 UNK        -0.0944 
     11 C11        31.2634   -2.6673   -4.6129 C.ar      12 UNK        -0.0787 
     12 C12        30.6344   -3.1872   -5.7538 C.ar      12 UNK        -0.0862 
     13 C13        29.8035   -4.3082   -5.6784 C.ar      12 UNK        -0.0733 
     14 C14        29.5903   -4.9154   -4.4379 C.ar      12 UNK        -0.0832 
     15 C15        29.1802   -4.8672   -6.9556 C.3       12 UNK         0.0240 
     16 S16        27.4156   -5.3185   -6.8161 S.3       12 UNK        -0.2522 
     17 C17        26.6330   -3.8032   -6.1704 C.3       12 UNK        -0.0967 
     18 CA         26.4250   -2.7013   -7.2468 C.3       5 UNK         0.0660 
     19 N          25.1514   -1.9990   -7.0659 N.am      5 UNK        -0.4015 
     20 C          24.6576   -1.0408   -7.8648 C.2       4 UNK         0.4946 
     21 O          25.2145   -0.6359   -8.8833 O.2       4 UNK        -0.5353 
     22 CA         23.3226   -0.4009   -7.4467 C.3       4 UNK         0.0277 
     23 CB         22.1495   -1.0970   -8.1547 C.3       4 UNK        -0.1981 
     24 N          23.0985   -0.4137   -5.9985 N.am      4 UNK        -0.4209 
     25 C          23.8565    0.2355   -5.1037 C.2       3 UNK         0.4942 
     26 O          24.8029    0.9629   -5.4188 O.2       3 UNK        -0.5208 
     27 CA         23.4749    0.0387   -3.6216 C.3       3 UNK         0.0250 
     28 CB         23.0497   -1.4121   -3.2944 C.3       3 UNK        -0.1990 
     29 N          24.5227    0.4817   -2.6952 N.am      3 UNK        -0.4232 
     30 C          25.7694    0.0005   -2.5748 C.2       2 UNK         0.4993 
     31 O          26.2247   -0.9230   -3.2568 O.2       2 UNK        -0.5286 
     32 CA         26.6781    0.7016   -1.5401 C.3       2 UNK         0.0209 
     33 CB         25.9192    1.5847   -0.5201 C.3       2 UNK        -0.1931 
     34 N          27.5720   -0.2292   -0.8404 N.am      2 UNK        -0.4546 
     35 C          27.2160   -1.2629   -0.0629 C.2       1 UNK         0.5154 
     36 O          26.0477   -1.5950    0.1661 O.2       1 UNK        -0.5181 
     37 C          27.6099   -1.7180   -7.2830 C.2       5 UNK         0.5014 
     38 O          28.3322   -1.6639   -8.2806 O.2       5 UNK        -0.5248 
     39 N          27.7603   -0.9333   -6.2057 N.am      6 UNK        -0.4434 
     40 CA         28.8277    0.0553   -6.0578 C.3       6 UNK         0.0363 
     41 CB         28.8533    0.5565   -4.6089 C.3       6 UNK        -0.1936 
     42 C          28.7010    1.2278   -7.0411 C.2       6 UNK         0.5081 
     43 O          29.7240    1.7739   -7.4543 O.2       6 UNK        -0.5248 
     44 N          27.4629    1.5819   -7.4134 N.am      7 UNK        -0.4718 
     45 CA         27.1691    2.5956   -8.4259 C.3       7 UNK         0.0273 
     46 CB         25.6780    2.9646   -8.3778 C.3       7 UNK        -0.1935 
     47 C          27.5837    2.1438   -9.8359 C.2       7 UNK         0.5018 
     48 O          28.2614    2.8998  -10.5318 O.2       7 UNK        -0.5186 
     49 N          27.1951    0.9192  -10.2229 N.am      8 UNK        -0.4240 
     50 CA         27.5112    0.3179  -11.5219 C.3       8 UNK         0.0235 
     51 CB         26.6828   -0.9618  -11.7191 C.3       8 UNK        -0.2000 
     52 C          29.0078    0.0222  -11.6984 C.2       8 UNK         0.4941 
     53 O          29.5540    0.2924  -12.7687 O.2       8 UNK        -0.5273 
     54 N          29.6468   -0.5105  -10.6478 N.am      9 UNK        -0.4262 
     55 CA         31.0829   -0.8030  -10.6216 C.3       9 UNK         0.0264 
     56 CB         31.3506   -1.8394   -9.5234 C.3       9 UNK        -0.1955 
     57 C          31.9660    0.4443  -10.4199 C.2       9 UNK         0.5031 
     58 O          33.1739    0.3586  -10.6436 O.2       9 UNK        -0.5390 
     59 N          31.3613    1.5627   -9.9916 N.am      10 UNK        -0.4204 
     60 CA         31.9592    2.8753   -9.7110 C.3       10 UNK         0.0237 
     61 CB         32.6283    3.4697  -10.9687 C.3       10 UNK        -0.1985 
     62 C          32.8819    2.9158   -8.4746 C.2       10 UNK         0.4970 
     63 O          33.5594    3.9240   -8.2667 O.2       10 UNK        -0.4914 
     64 N          32.8734    1.8550   -7.6585 N.am      11 UNK        -0.4285 
     65 CA         33.5347    1.7855   -6.3458 C.3       11 UNK         0.1007 
     66 C          32.7437    2.4734   -5.1963 C.2       11 UNK         0.5703 
     67 N          31.5031    2.8994   -5.4000 N.am      11 UNK        -0.7361 
     68 O          33.2791    2.6501   -4.1046 O.2       11 UNK        -0.4986 
     69 C69        33.9875    0.3420   -5.9848 C.3       12 UNK        -0.0947 
     70 S70        32.7508   -0.9564   -6.3214 S.3       12 UNK        -0.2240 
     71 C71        32.1903   -1.4449   -4.6540 C.3       12 UNK         0.0194 
     72 H72        26.7039   -4.3176    3.4411 H         1 UNK         0.0906 
     73 H73        28.2036   -5.1746    3.8006 H         1 UNK         0.0906 
     74 H74        27.7762   -3.7229    4.7107 H         1 UNK         0.0906 
     75 H75        26.8330   -3.0402    1.5726 H         1 UNK         0.3140 
     76 H76        28.9935   -1.2666    1.0824 H         1 UNK         0.1085 
     77 H77        29.5647   -2.1567   -1.2246 H         1 UNK         0.0836 
     78 H78        30.1846   -3.0988    0.0963 H         1 UNK         0.0836 
     79 H79        30.8135   -4.9981   -1.3020 H         1 UNK         0.0731 
     80 H80        29.7360   -6.1261   -2.0787 H         1 UNK         0.0731 
     81 H81        31.5061   -2.9001   -2.4910 H         1 UNK         0.1312 
     82 H82        30.7875   -2.7299   -6.7179 H         1 UNK         0.1406 
     83 H83        28.9492   -5.7838   -4.3685 H         1 UNK         0.1631 
     84 H84        29.7389   -5.7572   -7.2473 H         1 UNK         0.0717 
     85 H85        29.2900   -4.1622   -7.7805 H         1 UNK         0.0717 
     86 H86        27.1738   -3.4439   -5.2922 H         1 UNK         0.0934 
     87 H87        25.6668   -4.1283   -5.7812 H         1 UNK         0.0934 
     88 H88        26.3663   -3.1738   -8.2299 H         1 UNK         0.0739 
     89 H89        24.6162   -2.2461   -6.2477 H         1 UNK         0.3093 
     90 H90        23.3440    0.6419   -7.7691 H         1 UNK         0.0818 
     91 H91        21.2035   -0.5997   -7.9398 H         1 UNK         0.0819 
     92 H92        22.2830   -1.0789   -9.2376 H         1 UNK         0.0819 
     93 H93        22.0568   -2.1420   -7.8560 H         1 UNK         0.0819 
     94 H94        22.3230   -0.9675   -5.6639 H         1 UNK         0.3041 
     95 H95        22.6179    0.6887   -3.4391 H         1 UNK         0.0784 
     96 H96        22.1272   -1.6893   -3.8051 H         1 UNK         0.0793 
     97 H97        23.8158   -2.1346   -3.5786 H         1 UNK         0.0793 
     98 H98        22.8644   -1.5347   -2.2270 H         1 UNK         0.0793 
     99 H99        24.2733    1.2665   -2.1105 H         1 UNK         0.3024 
    100 H100       27.3247    1.3640   -2.1162 H         1 UNK         0.1171 
    101 H101       26.6059    2.0250    0.2032 H         1 UNK         0.0786 
    102 H102       25.1745    1.0164    0.0391 H         1 UNK         0.0786 
    103 H103       25.4092    2.4155   -1.0093 H         1 UNK         0.0786 
    104 H104       28.5579   -0.0625   -0.9838 H         1 UNK         0.2977 
    105 H105       27.1126   -1.0181   -5.4306 H         1 UNK         0.3127 
    106 H106       29.7751   -0.4431   -6.2653 H         1 UNK         0.0770 
    107 H107       27.9626    1.1416   -4.3809 H         1 UNK         0.0814 
    108 H108       29.7180    1.1914   -4.4257 H         1 UNK         0.0814 
    109 H109       28.9098   -0.2725   -3.9028 H         1 UNK         0.0814 
    110 H110       26.6759    1.0967   -7.0021 H         1 UNK         0.2983 
    111 H111       27.7464    3.4900   -8.1808 H         1 UNK         0.0947 
    112 H112       25.4544    3.7695   -9.0791 H         1 UNK         0.0806 
    113 H113       25.3852    3.3072   -7.3850 H         1 UNK         0.0806 
    114 H114       25.0420    2.1197   -8.6403 H         1 UNK         0.0806 
    115 H115       26.6095    0.3645   -9.6003 H         1 UNK         0.3000 
    116 H116       27.2224    1.0314  -12.2967 H         1 UNK         0.0850 
    117 H117       26.8976   -1.4241  -12.6835 H         1 UNK         0.0810 
    118 H118       25.6140   -0.7488  -11.6921 H         1 UNK         0.0810 
    119 H119       26.8941   -1.7014  -10.9453 H         1 UNK         0.0810 
    120 H120       29.1125   -0.7594   -9.8171 H         1 UNK         0.3040 
    121 H121       31.3658   -1.2457  -11.5790 H         1 UNK         0.0766 
    122 H122       32.4129   -2.0753   -9.4453 H         1 UNK         0.0812 
    123 H123       31.0216   -1.4642   -8.5565 H         1 UNK         0.0812 
    124 H124       30.8206   -2.7720   -9.7174 H         1 UNK         0.0812 
    125 H125       30.3701    1.5052   -9.7952 H         1 UNK         0.3205 
    126 H126       31.1158    3.5205   -9.4600 H         1 UNK         0.0754 
    127 H127       32.9140    4.5097  -10.8063 H         1 UNK         0.0769 
    128 H128       31.9511    3.4517  -11.8228 H         1 UNK         0.0769 
    129 H129       33.5323    2.9260  -11.2440 H         1 UNK         0.0769 
    130 H130       32.2600    1.0845   -7.8787 H         1 UNK         0.2981 
    131 H131       34.4530    2.3709   -6.4218 H         1 UNK         0.0541 
    132 H132       31.0241    2.6963   -6.2704 H         1 UNK         0.3459 
    133 H133       31.0181    3.3703   -4.6541 H         1 UNK         0.3459 
    134 H134       34.3273    0.2748   -4.9498 H         1 UNK         0.0612 
    135 H135       34.8623    0.0935   -6.5873 H         1 UNK         0.0612 
    136 H136       33.0719   -1.6502   -4.0450 H         1 UNK         0.0624 
    137 H137       31.6801   -0.5975   -4.1947 H         1 UNK         0.0624 
@<TRIPOS>BOND
     1    1    2 1    
     2    1   72 1    
     3    1   73 1    
     4    1   74 1    
     5    2    3 2    
     6    2    4 am   BACKBONE|DICT|INTERRES
     7    4    5 1    
     8    4   75 1    
     9    5    6 1    
    10    5   35 1    
    11    5   76 1    
    12    6    7 1    
    13    6   77 1    
    14    6   78 1    
    15    7    8 1    
    16    8    9 1    
    17    8   79 1    
    18    8   80 1    
    19    9   10 ar   
    20    9   14 ar   
    21   10   11 ar   
    22   10   81 1    
    23   11   12 ar   
    24   11   71 1    
    25   12   13 ar   
    26   12   82 1    
    27   13   14 ar   
    28   13   15 1    
    29   14   83 1    
    30   15   16 1    
    31   15   84 1    
    32   15   85 1    
    33   16   17 1    
    34   17   18 1    
    35   17   86 1    
    36   17   87 1    
    37   18   19 1    
    38   18   37 1    
    39   18   88 1    
    40   19   20 am   BACKBONE|DICT|INTERRES
    41   19   89 1    
    42   20   21 2    
    43   20   22 1    
    44   22   23 1    
    45   22   24 1    
    46   22   90 1    
    47   23   91 1    
    48   23   92 1    
    49   23   93 1    
    50   24   25 am   BACKBONE|DICT|INTERRES
    51   24   94 1    
    52   25   26 2    
    53   25   27 1    
    54   27   28 1    
    55   27   29 1    
    56   27   95 1    
    57   28   96 1    
    58   28   97 1    
    59   28   98 1    
    60   29   30 am   BACKBONE|DICT|INTERRES
    61   29   99 1    
    62   30   31 2    
    63   30   32 1    
    64   32   33 1    
    65   32   34 1    
    66   32  100 1    
    67   33  101 1    
    68   33  102 1    
    69   33  103 1    
    70   34   35 am   BACKBONE|DICT|INTERRES
    71   34  104 1    
    72   35   36 2    
    73   37   38 2    
    74   37   39 am   BACKBONE|DICT|INTERRES
    75   39   40 1    
    76   39  105 1    
    77   40   41 1    
    78   40   42 1    
    79   40  106 1    
    80   41  107 1    
    81   41  108 1    
    82   41  109 1    
    83   42   43 2    
    84   42   44 am   BACKBONE|DICT|INTERRES
    85   44   45 1    
    86   44  110 1    
    87   45   46 1    
    88   45   47 1    
    89   45  111 1    
    90   46  112 1    
    91   46  113 1    
    92   46  114 1    
    93   47   48 2    
    94   47   49 am   BACKBONE|DICT|INTERRES
    95   49   50 1    
    96   49  115 1    
    97   50   51 1    
    98   50   52 1    
    99   50  116 1    
   100   51  117 1    
   101   51  118 1    
   102   51  119 1    
   103   52   53 2    
   104   52   54 am   BACKBONE|DICT|INTERRES
   105   54   55 1    
   106   54  120 1    
   107   55   56 1    
   108   55   57 1    
   109   55  121 1    
   110   56  122 1    
   111   56  123 1    
   112   56  124 1    
   113   57   58 2    
   114   57   59 am   BACKBONE|DICT|INTERRES
   115   59   60 1    
   116   59  125 1    
   117   60   61 1    
   118   60   62 1    
   119   60  126 1    
   120   61  127 1    
   121   61  128 1    
   122   61  129 1    
   123   62   63 2    
   124   62   64 am   BACKBONE|DICT|INTERRES
   125   64   65 1    
   126   64  130 1    
   127   65   66 1    
   128   65   69 1    
   129   65  131 1    
   130   66   67 am   BACKBONE|DICT|INTERRES
   131   66   68 2    
   132   67  132 1    
   133   67  133 1    
   134   69   70 1    
   135   69  134 1    
   136   69  135 1    
   137   70   71 1    
   138   71  136 1    
   139   71  137 1    
@<TRIPOS>SUBSTRUCTURE
     1 UNK         1 GROUP             0       ****    0 ROOT    
