@<TRIPOS>MOLECULE
3R137
137   139    1
SMALL
USER_CHARGES


@<TRIPOS>ATOM
      1 CA         29.6850   -0.6334   -1.1880 C.3       0 UNK        -0.2020 
      2 C          29.8003   -1.3994    0.1272 C.2       0 UNK         0.4855 
      3 O          30.4568   -0.9190    1.0491 O.2       0 UNK        -0.5197 
      4 N          29.2015   -2.5903    0.2654 N.am      1 UNK        -0.4892 
      5 CA         28.3331   -3.2615   -0.7098 C.3       1 UNK         0.0835 
      6 C6         28.2379   -4.7862   -0.4329 C.3       12 UNK        -0.0855 
      7 S7         29.7652   -5.8040   -0.5178 S.3       12 UNK        -0.2931 
      8 C8         31.1057   -4.7824   -1.2404 C.3       12 UNK         0.0378 
      9 C9         30.9088   -4.3036   -2.6807 C.ar      12 UNK        -0.0802 
     10 C10        31.7907   -3.3404   -3.1842 C.ar      12 UNK        -0.0944 
     11 C11        31.6485   -2.8447   -4.4838 C.ar      12 UNK        -0.0787 
     12 C12        30.5946   -3.3014   -5.2788 C.ar      12 UNK        -0.0862 
     13 C13        29.7118   -4.2707   -4.7961 C.ar      12 UNK        -0.0733 
     14 C14        29.8866   -4.7850   -3.5097 C.ar      12 UNK        -0.0832 
     15 C15        28.5686   -4.7651   -5.6646 C.3       12 UNK         0.0240 
     16 S16        26.9754   -4.0842   -5.1012 S.3       12 UNK        -0.2522 
     17 C17        26.1056   -3.9067   -6.6994 C.3       12 UNK        -0.0967 
     18 CA         26.0442   -2.4745   -7.3038 C.3       5 UNK         0.0660 
     19 N          24.8937   -1.7006   -6.8310 N.am      5 UNK        -0.4015 
     20 C          24.3698   -0.6697   -7.5118 C.2       4 UNK         0.4946 
     21 O          24.8034   -0.2755   -8.5960 O.2       4 UNK        -0.5353 
     22 CA         23.1772    0.0571   -6.8699 C.3       4 UNK         0.0277 
     23 CB         21.8796   -0.7431   -7.0683 C.3       4 UNK        -0.1981 
     24 N          23.3778    0.3308   -5.4458 N.am      4 UNK        -0.4209 
     25 C          24.2929    1.1844   -4.9653 C.2       3 UNK         0.4942 
     26 O          25.0553    1.8423   -5.6720 O.2       3 UNK        -0.5208 
     27 CA         24.4019    1.2962   -3.4345 C.3       3 UNK         0.0250 
     28 CB         23.3656    2.2927   -2.8907 C.3       3 UNK        -0.1990 
     29 N          24.2787    0.0172   -2.7225 N.am      3 UNK        -0.4232 
     30 C          25.0630   -1.0480   -2.9346 C.2       2 UNK         0.4993 
     31 O          25.9077   -1.1076   -3.8289 O.2       2 UNK        -0.5286 
     32 CA         24.8559   -2.2664   -2.0297 C.3       2 UNK         0.0209 
     33 CB         23.9297   -3.2866   -2.7121 C.3       2 UNK        -0.1931 
     34 N          26.1578   -2.8877   -1.7822 N.am      2 UNK        -0.4546 
     35 C          26.9217   -2.6323   -0.7131 C.2       1 UNK         0.5154 
     36 O          26.5458   -1.9470    0.2422 O.2       1 UNK        -0.5181 
     37 C          27.3496   -1.6588   -7.1921 C.2       5 UNK         0.5014 
     38 O          28.1895   -1.7452   -8.0869 O.2       5 UNK        -0.5248 
     39 N          27.4767   -0.8465   -6.1326 N.am      6 UNK        -0.4434 
     40 CA         28.5881    0.0774   -5.9195 C.3       6 UNK         0.0363 
     41 CB         28.5067    0.6709   -4.5072 C.3       6 UNK        -0.1936 
     42 C          28.6507    1.1927   -6.9703 C.2       6 UNK         0.5081 
     43 O          29.7492    1.5636   -7.3838 O.2       6 UNK        -0.5248 
     44 N          27.4849    1.6896   -7.4069 N.am      7 UNK        -0.4718 
     45 CA         27.3602    2.6347   -8.5172 C.3       7 UNK         0.0273 
     46 CB         25.9352    3.2077   -8.5632 C.3       7 UNK        -0.1935 
     47 C          27.7403    1.9995   -9.8639 C.2       7 UNK         0.5018 
     48 O          28.4506    2.6338  -10.6434 O.2       7 UNK        -0.5186 
     49 N          27.2978    0.7542  -10.0987 N.am      8 UNK        -0.4240 
     50 CA         27.6335   -0.0338  -11.2897 C.3       8 UNK         0.0235 
     51 CB         26.7648   -1.3009  -11.3397 C.3       8 UNK        -0.2000 
     52 C          29.1294   -0.3883  -11.3723 C.2       8 UNK         0.4941 
     53 O          29.7211   -0.2664  -12.4453 O.2       8 UNK        -0.5273 
     54 N          29.7189   -0.7908  -10.2375 N.am      9 UNK        -0.4262 
     55 CA         31.1515   -1.0673  -10.0855 C.3       9 UNK         0.0264 
     56 CB         31.3692   -1.8620   -8.7887 C.3       9 UNK        -0.1955 
     57 C          32.0272    0.1995  -10.0722 C.2       9 UNK         0.5031 
     58 O          33.2375    0.0895  -10.2727 O.2       9 UNK        -0.5390 
     59 N          31.4081    1.3600   -9.8147 N.am      10 UNK        -0.4204 
     60 CA         32.0047    2.6885   -9.6539 C.3       10 UNK         0.0237 
     61 CB         32.6832    3.1608  -10.9580 C.3       10 UNK        -0.1985 
     62 C          32.9150    2.8033   -8.4143 C.2       10 UNK         0.4970 
     63 O          33.8697    3.5831   -8.4362 O.2       10 UNK        -0.4914 
     64 N          32.5912    2.0549   -7.3500 N.am      11 UNK        -0.4285 
     65 CA         33.2110    2.1899   -6.0222 C.3       11 UNK         0.1007 
     66 C          32.4327    3.1528   -5.0791 C.2       11 UNK         0.5703 
     67 N          31.1980    3.5330   -5.3926 N.am      11 UNK        -0.7361 
     68 O          32.9689    3.5803   -4.0595 O.2       11 UNK        -0.4986 
     69 C69        33.5176    0.8154   -5.3663 C.3       12 UNK        -0.0947 
     70 S70        32.0535   -0.1315   -4.8276 S.3       12 UNK        -0.2240 
     71 C71        32.6452   -1.8349   -5.0344 C.3       12 UNK         0.0194 
     72 H72        30.0353   -1.2322   -2.0283 H         1 UNK         0.0906 
     73 H73        28.6540   -0.3317   -1.3687 H         1 UNK         0.0906 
     74 H74        30.2928    0.2708   -1.1584 H         1 UNK         0.0906 
     75 H75        29.2782   -3.0607    1.1556 H         1 UNK         0.3140 
     76 H76        28.7354   -3.1100   -1.7096 H         1 UNK         0.1085 
     77 H77        27.7997   -4.9528    0.5534 H         1 UNK         0.0836 
     78 H78        27.5392   -5.2453   -1.1353 H         1 UNK         0.0836 
     79 H79        32.0158   -5.3833   -1.2183 H         1 UNK         0.0731 
     80 H80        31.3045   -3.9324   -0.5887 H         1 UNK         0.0731 
     81 H81        32.5955   -2.9740   -2.5611 H         1 UNK         0.1312 
     82 H82        30.4642   -2.9071   -6.2761 H         1 UNK         0.1406 
     83 H83        29.2007   -5.5420   -3.1578 H         1 UNK         0.1631 
     84 H84        28.5243   -5.8549   -5.6419 H         1 UNK         0.0717 
     85 H85        28.7526   -4.4861   -6.7033 H         1 UNK         0.0717 
     86 H86        26.5712   -4.5771   -7.4236 H         1 UNK         0.0934 
     87 H87        25.0957   -4.3016   -6.5772 H         1 UNK         0.0934 
     88 H88        25.8835   -2.6214   -8.3744 H         1 UNK         0.0739 
     89 H89        24.5364   -1.9262   -5.9145 H         1 UNK         0.3093 
     90 H90        23.0648    1.0157   -7.3816 H         1 UNK         0.0818 
     91 H91        21.0140   -0.1912   -6.7015 H         1 UNK         0.0819 
     92 H92        21.7061   -0.9466   -8.1261 H         1 UNK         0.0819 
     93 H93        21.9088   -1.7036   -6.5524 H         1 UNK         0.0819 
     94 H94        22.7930   -0.1667   -4.7903 H         1 UNK         0.3041 
     95 H95        25.3959    1.6905   -3.2132 H         1 UNK         0.0784 
     96 H96        23.4499    3.2568   -3.3947 H         1 UNK         0.0793 
     97 H97        22.3449    1.9370   -3.0366 H         1 UNK         0.0793 
     98 H98        23.5096    2.4742   -1.8254 H         1 UNK         0.0793 
     99 H99        23.5935   -0.0204   -1.9812 H         1 UNK         0.3024 
    100 H100       24.3992   -1.9490   -1.0893 H         1 UNK         0.1171 
    101 H101       22.9410   -2.8612   -2.8885 H         1 UNK         0.0786 
    102 H102       24.3215   -3.6123   -3.6763 H         1 UNK         0.0786 
    103 H103       23.7939   -4.1727   -2.0917 H         1 UNK         0.0786 
    104 H104       26.5507   -3.3934   -2.5655 H         1 UNK         0.2977 
    105 H105       26.7809   -0.8956   -5.3883 H         1 UNK         0.3127 
    106 H106       29.5057   -0.5045   -6.0014 H         1 UNK         0.0770 
    107 H107       27.5956    1.2526   -4.3657 H         1 UNK         0.0814 
    108 H108       29.3533    1.3288   -4.3073 H         1 UNK         0.0814 
    109 H109       28.5209   -0.1182   -3.7576 H         1 UNK         0.0814 
    110 H110       26.6248    1.3962   -6.9547 H         1 UNK         0.2983 
    111 H111       28.0516    3.4604   -8.3348 H         1 UNK         0.0947 
    112 H112       25.8251    3.9170   -9.3845 H         1 UNK         0.0806 
    113 H113       25.6937    3.7385   -7.6422 H         1 UNK         0.0806 
    114 H114       25.1875    2.4263   -8.7025 H         1 UNK         0.0806 
    115 H115       26.6793    0.3230   -9.4196 H         1 UNK         0.3000 
    116 H116       27.3913    0.5749  -12.1636 H         1 UNK         0.0850 
    117 H117       26.9665   -1.9646  -10.4992 H         1 UNK         0.0810 
    118 H118       26.9543   -1.8663  -12.2530 H         1 UNK         0.0810 
    119 H119       25.7027   -1.0551  -11.3239 H         1 UNK         0.0810 
    120 H120       29.1358   -0.9552   -9.4168 H         1 UNK         0.3040 
    121 H121       31.4733   -1.6836  -10.9275 H         1 UNK         0.0766 
    122 H122       31.0739   -1.2807   -7.9142 H         1 UNK         0.0812 
    123 H123       32.4189   -2.1310   -8.6644 H         1 UNK         0.0812 
    124 H124       30.7940   -2.7881   -8.7888 H         1 UNK         0.0812 
    125 H125       30.4167    1.3159   -9.6160 H         1 UNK         0.3205 
    126 H126       31.1666    3.3608   -9.4640 H         1 UNK         0.0754 
    127 H127       32.9793    4.2082  -10.8881 H         1 UNK         0.0769 
    128 H128       32.0074    3.0730  -11.8088 H         1 UNK         0.0769 
    129 H129       33.5814    2.5843  -11.1808 H         1 UNK         0.0769 
    130 H130       31.7332    1.5143   -7.3867 H         1 UNK         0.2981 
    131 H131       34.1846    2.6652   -6.1533 H         1 UNK         0.0541 
    132 H132       30.7363    3.1446   -6.2031 H         1 UNK         0.3459 
    133 H133       30.7078    4.1674   -4.7832 H         1 UNK         0.3459 
    134 H134       34.1591    0.9553   -4.4946 H         1 UNK         0.0612 
    135 H135       34.0971    0.2079   -6.0632 H         1 UNK         0.0612 
    136 H136       33.6064   -1.9441   -4.5297 H         1 UNK         0.0624 
    137 H137       32.8283   -2.0283   -6.0921 H         1 UNK         0.0624 
@<TRIPOS>BOND
     1    1    2 1    
     2    1   72 1    
     3    1   73 1    
     4    1   74 1    
     5    2    3 2    
     6    2    4 am   BACKBONE|DICT|INTERRES
     7    4    5 1    
     8    4   75 1    
     9    5    6 1    
    10    5   35 1    
    11    5   76 1    
    12    6    7 1    
    13    6   77 1    
    14    6   78 1    
    15    7    8 1    
    16    8    9 1    
    17    8   79 1    
    18    8   80 1    
    19    9   10 ar   
    20    9   14 ar   
    21   10   11 ar   
    22   10   81 1    
    23   11   12 ar   
    24   11   71 1    
    25   12   13 ar   
    26   12   82 1    
    27   13   14 ar   
    28   13   15 1    
    29   14   83 1    
    30   15   16 1    
    31   15   84 1    
    32   15   85 1    
    33   16   17 1    
    34   17   18 1    
    35   17   86 1    
    36   17   87 1    
    37   18   19 1    
    38   18   37 1    
    39   18   88 1    
    40   19   20 am   BACKBONE|DICT|INTERRES
    41   19   89 1    
    42   20   21 2    
    43   20   22 1    
    44   22   23 1    
    45   22   24 1    
    46   22   90 1    
    47   23   91 1    
    48   23   92 1    
    49   23   93 1    
    50   24   25 am   BACKBONE|DICT|INTERRES
    51   24   94 1    
    52   25   26 2    
    53   25   27 1    
    54   27   28 1    
    55   27   29 1    
    56   27   95 1    
    57   28   96 1    
    58   28   97 1    
    59   28   98 1    
    60   29   30 am   BACKBONE|DICT|INTERRES
    61   29   99 1    
    62   30   31 2    
    63   30   32 1    
    64   32   33 1    
    65   32   34 1    
    66   32  100 1    
    67   33  101 1    
    68   33  102 1    
    69   33  103 1    
    70   34   35 am   BACKBONE|DICT|INTERRES
    71   34  104 1    
    72   35   36 2    
    73   37   38 2    
    74   37   39 am   BACKBONE|DICT|INTERRES
    75   39   40 1    
    76   39  105 1    
    77   40   41 1    
    78   40   42 1    
    79   40  106 1    
    80   41  107 1    
    81   41  108 1    
    82   41  109 1    
    83   42   43 2    
    84   42   44 am   BACKBONE|DICT|INTERRES
    85   44   45 1    
    86   44  110 1    
    87   45   46 1    
    88   45   47 1    
    89   45  111 1    
    90   46  112 1    
    91   46  113 1    
    92   46  114 1    
    93   47   48 2    
    94   47   49 am   BACKBONE|DICT|INTERRES
    95   49   50 1    
    96   49  115 1    
    97   50   51 1    
    98   50   52 1    
    99   50  116 1    
   100   51  117 1    
   101   51  118 1    
   102   51  119 1    
   103   52   53 2    
   104   52   54 am   BACKBONE|DICT|INTERRES
   105   54   55 1    
   106   54  120 1    
   107   55   56 1    
   108   55   57 1    
   109   55  121 1    
   110   56  122 1    
   111   56  123 1    
   112   56  124 1    
   113   57   58 2    
   114   57   59 am   BACKBONE|DICT|INTERRES
   115   59   60 1    
   116   59  125 1    
   117   60   61 1    
   118   60   62 1    
   119   60  126 1    
   120   61  127 1    
   121   61  128 1    
   122   61  129 1    
   123   62   63 2    
   124   62   64 am   BACKBONE|DICT|INTERRES
   125   64   65 1    
   126   64  130 1    
   127   65   66 1    
   128   65   69 1    
   129   65  131 1    
   130   66   67 am   BACKBONE|DICT|INTERRES
   131   66   68 2    
   132   67  132 1    
   133   67  133 1    
   134   69   70 1    
   135   69  134 1    
   136   69  135 1    
   137   70   71 1    
   138   71  136 1    
   139   71  137 1    
@<TRIPOS>SUBSTRUCTURE
     1 UNK         1 GROUP             0       ****    0 ROOT    
