@<TRIPOS>MOLECULE
3R137
137   139    1
SMALL
USER_CHARGES


@<TRIPOS>ATOM
      1 CA         27.0658    0.3712    2.6437 C.3       0 UNK        -0.2020 
      2 C          26.8647    0.5431    1.1457 C.2       0 UNK         0.4855 
      3 O          26.3510    1.5737    0.7104 O.2       0 UNK        -0.5197 
      4 N          27.2652   -0.4588    0.3522 N.am      1 UNK        -0.4892 
      5 CA         27.1293   -0.4778   -1.1102 C.3       1 UNK         0.0835 
      6 C6         28.0595   -1.5396   -1.7516 C.3       12 UNK        -0.0855 
      7 S7         27.7408   -3.2483   -1.1717 S.3       12 UNK        -0.2931 
      8 C8         29.4263   -3.9304   -1.0471 C.3       12 UNK         0.0378 
      9 C9         30.1306   -3.9390   -2.3961 C.ar      12 UNK        -0.0802 
     10 C10        31.2327   -3.1069   -2.6225 C.ar      12 UNK        -0.0944 
     11 C11        31.8505   -3.0795   -3.8759 C.ar      12 UNK        -0.0787 
     12 C12        31.3778   -3.9073   -4.8956 C.ar      12 UNK        -0.0862 
     13 C13        30.2467   -4.7029   -4.6953 C.ar      12 UNK        -0.0733 
     14 C14        29.6463   -4.7421   -3.4344 C.ar      12 UNK        -0.0832 
     15 C15        29.6051   -5.4092   -5.8808 C.3       12 UNK         0.0240 
     16 S16        28.2333   -4.4225   -6.5861 S.3       12 UNK        -0.2522 
     17 C17        28.9563   -2.7440   -6.6297 C.3       12 UNK        -0.0967 
     18 CA         28.0532   -1.6616   -7.2597 C.3       5 UNK         0.0660 
     19 N          26.7294   -1.6199   -6.6296 N.am      5 UNK        -0.4015 
     20 C          25.7272   -0.7942   -6.9598 C.2       4 UNK         0.4946 
     21 O          25.8042    0.0286   -7.8729 O.2       4 UNK        -0.5353 
     22 CA         24.4587   -0.8249   -6.0888 C.3       4 UNK         0.0277 
     23 CB         23.1697   -0.8570   -6.9360 C.3       4 UNK        -0.1981 
     24 N          24.4620   -1.8573   -5.0416 N.am      4 UNK        -0.4209 
     25 C          24.3094   -3.1861   -5.1771 C.2       3 UNK         0.4942 
     26 O          24.1581   -3.7491   -6.2609 O.2       3 UNK        -0.5208 
     27 CA         24.3640   -4.0496   -3.8975 C.3       3 UNK         0.0250 
     28 CB         25.6472   -4.8977   -3.8816 C.3       3 UNK        -0.1990 
     29 N          24.3005   -3.2767   -2.6540 N.am      3 UNK        -0.4232 
     30 C          23.2311   -2.5993   -2.2106 C.2       2 UNK         0.4993 
     31 O          22.1200   -2.6594   -2.7375 O.2       2 UNK        -0.5286 
     32 CA         23.4404   -1.6628   -1.0034 C.3       2 UNK         0.0209 
     33 CB         22.8354   -2.2799    0.2682 C.3       2 UNK        -0.1931 
     34 N          24.8414   -1.3079   -0.7402 N.am      2 UNK        -0.4546 
     35 C          25.6704   -0.6668   -1.5800 C.2       1 UNK         0.5154 
     36 O          25.3393   -0.2834   -2.7036 O.2       1 UNK        -0.5181 
     37 C          28.7761   -0.3007   -7.1789 C.2       5 UNK         0.5014 
     38 O          29.4052    0.1167   -8.1510 O.2       5 UNK        -0.5248 
     39 N          28.6548    0.3700   -6.0236 N.am      6 UNK        -0.4434 
     40 CA         29.2209    1.6934   -5.7637 C.3       6 UNK         0.0363 
     41 CB         29.1578    1.9867   -4.2564 C.3       6 UNK        -0.1936 
     42 C          28.5256    2.8042   -6.5683 C.2       6 UNK         0.5081 
     43 O          29.2002    3.7252   -7.0260 O.2       6 UNK        -0.5248 
     44 N          27.2038    2.6824   -6.7634 N.am      7 UNK        -0.4718 
     45 CA         26.4019    3.5867   -7.5953 C.3       7 UNK         0.0273 
     46 CB         24.9072    3.3782   -7.3012 C.3       7 UNK        -0.1935 
     47 C          26.6998    3.4082   -9.0935 C.2       7 UNK         0.5018 
     48 O          26.7484    4.3968   -9.8255 O.2       7 UNK        -0.5186 
     49 N          26.9438    2.1570   -9.5081 N.am      8 UNK        -0.4240 
     50 CA         27.4239    1.7870  -10.8428 C.3       8 UNK         0.0235 
     51 CB         27.1927    0.2802  -11.0483 C.3       8 UNK        -0.2000 
     52 C          28.9056    2.1415  -11.0901 C.2       8 UNK         0.4941 
     53 O          29.3513    2.0568  -12.2351 O.2       8 UNK        -0.5273 
     54 N          29.6382    2.5080  -10.0261 N.am      9 UNK        -0.4262 
     55 CA         31.0725    2.8157   -9.9740 C.3       9 UNK         0.0264 
     56 CB         31.4059    4.0669  -10.8139 C.3       9 UNK        -0.1955 
     57 C          31.9677    1.6063  -10.3111 C.2       9 UNK         0.5031 
     58 O          33.0749    1.7840  -10.8233 O.2       9 UNK        -0.5390 
     59 N          31.4921    0.3947   -9.9917 N.am      10 UNK        -0.4204 
     60 CA         32.1995   -0.8683  -10.2162 C.3       10 UNK         0.0237 
     61 CB         31.1877   -2.0249  -10.1851 C.3       10 UNK        -0.1985 
     62 C          33.3404   -1.1103   -9.2117 C.2       10 UNK         0.4970 
     63 O          34.2212   -1.9232   -9.4943 O.2       10 UNK        -0.4914 
     64 N          33.3147   -0.4060   -8.0719 N.am      11 UNK        -0.4285 
     65 CA         34.3586   -0.4400   -7.0344 C.3       11 UNK         0.1007 
     66 C          35.6974    0.2455   -7.4404 C.2       11 UNK         0.5703 
     67 N          35.7614    0.9974   -8.5341 N.am      11 UNK        -0.7361 
     68 O          36.7008    0.0852   -6.7496 O.2       11 UNK        -0.4986 
     69 C69        33.8499    0.1142   -5.6753 C.3       12 UNK        -0.0947 
     70 S70        32.3129   -0.6798   -5.1046 S.3       12 UNK        -0.2240 
     71 C71        32.9708   -2.0983   -4.1729 C.3       12 UNK         0.0194 
     72 H72        27.5329   -0.5831    2.8864 H         1 UNK         0.0906 
     73 H73        27.7012    1.1674    3.0305 H         1 UNK         0.0906 
     74 H74        26.1068    0.4200    3.1589 H         1 UNK         0.0906 
     75 H75        27.6836   -1.2854    0.7572 H         1 UNK         0.3140 
     76 H76        27.4423    0.5007   -1.4822 H         1 UNK         0.1085 
     77 H77        27.9783   -1.5222   -2.8404 H         1 UNK         0.0836 
     78 H78        29.0962   -1.2770   -1.5353 H         1 UNK         0.0836 
     79 H79        29.3691   -4.9509   -0.6660 H         1 UNK         0.0731 
     80 H80        29.9933   -3.3582   -0.3110 H         1 UNK         0.0731 
     81 H81        31.5885   -2.4557   -1.8357 H         1 UNK         0.1312 
     82 H82        31.8337   -3.8563   -5.8751 H         1 UNK         0.1406 
     83 H83        28.7642   -5.3479   -3.2769 H         1 UNK         0.1631 
     84 H84        29.2258   -6.3853   -5.5751 H         1 UNK         0.0717 
     85 H85        30.3465   -5.5967   -6.6591 H         1 UNK         0.0717 
     86 H86        29.1880   -2.4550   -5.6027 H         1 UNK         0.0934 
     87 H87        29.9103   -2.7995   -7.1559 H         1 UNK         0.0934 
     88 H88        27.9063   -1.8988   -8.3152 H         1 UNK         0.0739 
     89 H89        26.5649   -2.2982   -5.9013 H         1 UNK         0.3093 
     90 H90        24.4595    0.1232   -5.5488 H         1 UNK         0.0818 
     91 H91        23.1270   -1.7340   -7.5820 H         1 UNK         0.0819 
     92 H92        22.2801   -0.8579   -6.3061 H         1 UNK         0.0819 
     93 H93        23.1072    0.0193   -7.5825 H         1 UNK         0.0819 
     94 H94        24.6207   -1.4933   -4.1058 H         1 UNK         0.3041 
     95 H95        23.5043   -4.7224   -3.9228 H         1 UNK         0.0784 
     96 H96        25.7093   -5.5328   -4.7666 H         1 UNK         0.0793 
     97 H97        26.5413   -4.2735   -3.8677 H         1 UNK         0.0793 
     98 H98        25.6821   -5.5534   -3.0114 H         1 UNK         0.0793 
     99 H99        25.1640   -3.1842   -2.1368 H         1 UNK         0.3024 
    100 H100       22.9053   -0.7371   -1.2269 H         1 UNK         0.1171 
    101 H101       21.7831   -2.5279    0.1206 H         1 UNK         0.0786 
    102 H102       23.3495   -3.1983    0.5547 H         1 UNK         0.0786 
    103 H103       22.8869   -1.5881    1.1092 H         1 UNK         0.0786 
    104 H104       25.2202   -1.5943    0.1511 H         1 UNK         0.2977 
    105 H105       28.1238   -0.0511   -5.2766 H         1 UNK         0.3127 
    106 H106       30.2712    1.6756   -6.0637 H         1 UNK         0.0770 
    107 H107       28.1321    1.9944   -3.8854 H         1 UNK         0.0814 
    108 H108       29.5932    2.9615   -4.0319 H         1 UNK         0.0814 
    109 H109       29.7181    1.2453   -3.6858 H         1 UNK         0.0814 
    110 H110       26.7324    1.8718   -6.3905 H         1 UNK         0.2983 
    111 H111       26.6607    4.6138   -7.3277 H         1 UNK         0.0947 
    112 H112       24.2984    4.0761   -7.8777 H         1 UNK         0.0806 
    113 H113       24.6821    3.5474   -6.2482 H         1 UNK         0.0806 
    114 H114       24.5760    2.3720   -7.5584 H         1 UNK         0.0806 
    115 H115       26.7887    1.3952   -8.8522 H         1 UNK         0.3000 
    116 H116       26.8316    2.3304  -11.5818 H         1 UNK         0.0850 
    117 H117       27.4804   -0.0273  -12.0545 H         1 UNK         0.0810 
    118 H118       26.1427    0.0177  -10.9163 H         1 UNK         0.0810 
    119 H119       27.7763   -0.3158  -10.3462 H         1 UNK         0.0810 
    120 H120       29.1682    2.5193   -9.1307 H         1 UNK         0.3040 
    121 H121       31.2842    3.0584   -8.9316 H         1 UNK         0.0766 
    122 H122       30.7635    4.9059  -10.5465 H         1 UNK         0.0812 
    123 H123       31.2903    3.8813  -11.8820 H         1 UNK         0.0812 
    124 H124       32.4364    4.3844  -10.6503 H         1 UNK         0.0812 
    125 H125       30.6042    0.3374   -9.4922 H         1 UNK         0.3205 
    126 H126       32.6461   -0.8368  -11.2124 H         1 UNK         0.0754 
    127 H127       31.6758   -2.9788  -10.3896 H         1 UNK         0.0769 
    128 H128       30.4094   -1.8907  -10.9367 H         1 UNK         0.0769 
    129 H129       30.7029   -2.1078   -9.2138 H         1 UNK         0.0769 
    130 H130       32.5432    0.2218   -7.9070 H         1 UNK         0.2981 
    131 H131       34.6081   -1.4909   -6.8769 H         1 UNK         0.0541 
    132 H132       36.6370    1.4296   -8.7828 H         1 UNK         0.3459 
    133 H133       34.9496    1.1313   -9.1180 H         1 UNK         0.3459 
    134 H134       33.6578    1.1858   -5.7542 H         1 UNK         0.0612 
    135 H135       34.6093   -0.0016   -4.8996 H         1 UNK         0.0612 
    136 H136       33.7489   -2.5950   -4.7544 H         1 UNK         0.0624 
    137 H137       33.4385   -1.7462   -3.2523 H         1 UNK         0.0624 
@<TRIPOS>BOND
     1    1    2 1    
     2    1   72 1    
     3    1   73 1    
     4    1   74 1    
     5    2    3 2    
     6    2    4 am   BACKBONE|DICT|INTERRES
     7    4    5 1    
     8    4   75 1    
     9    5    6 1    
    10    5   35 1    
    11    5   76 1    
    12    6    7 1    
    13    6   77 1    
    14    6   78 1    
    15    7    8 1    
    16    8    9 1    
    17    8   79 1    
    18    8   80 1    
    19    9   10 ar   
    20    9   14 ar   
    21   10   11 ar   
    22   10   81 1    
    23   11   12 ar   
    24   11   71 1    
    25   12   13 ar   
    26   12   82 1    
    27   13   14 ar   
    28   13   15 1    
    29   14   83 1    
    30   15   16 1    
    31   15   84 1    
    32   15   85 1    
    33   16   17 1    
    34   17   18 1    
    35   17   86 1    
    36   17   87 1    
    37   18   19 1    
    38   18   37 1    
    39   18   88 1    
    40   19   20 am   BACKBONE|DICT|INTERRES
    41   19   89 1    
    42   20   21 2    
    43   20   22 1    
    44   22   23 1    
    45   22   24 1    
    46   22   90 1    
    47   23   91 1    
    48   23   92 1    
    49   23   93 1    
    50   24   25 am   BACKBONE|DICT|INTERRES
    51   24   94 1    
    52   25   26 2    
    53   25   27 1    
    54   27   28 1    
    55   27   29 1    
    56   27   95 1    
    57   28   96 1    
    58   28   97 1    
    59   28   98 1    
    60   29   30 am   BACKBONE|DICT|INTERRES
    61   29   99 1    
    62   30   31 2    
    63   30   32 1    
    64   32   33 1    
    65   32   34 1    
    66   32  100 1    
    67   33  101 1    
    68   33  102 1    
    69   33  103 1    
    70   34   35 am   BACKBONE|DICT|INTERRES
    71   34  104 1    
    72   35   36 2    
    73   37   38 2    
    74   37   39 am   BACKBONE|DICT|INTERRES
    75   39   40 1    
    76   39  105 1    
    77   40   41 1    
    78   40   42 1    
    79   40  106 1    
    80   41  107 1    
    81   41  108 1    
    82   41  109 1    
    83   42   43 2    
    84   42   44 am   BACKBONE|DICT|INTERRES
    85   44   45 1    
    86   44  110 1    
    87   45   46 1    
    88   45   47 1    
    89   45  111 1    
    90   46  112 1    
    91   46  113 1    
    92   46  114 1    
    93   47   48 2    
    94   47   49 am   BACKBONE|DICT|INTERRES
    95   49   50 1    
    96   49  115 1    
    97   50   51 1    
    98   50   52 1    
    99   50  116 1    
   100   51  117 1    
   101   51  118 1    
   102   51  119 1    
   103   52   53 2    
   104   52   54 am   BACKBONE|DICT|INTERRES
   105   54   55 1    
   106   54  120 1    
   107   55   56 1    
   108   55   57 1    
   109   55  121 1    
   110   56  122 1    
   111   56  123 1    
   112   56  124 1    
   113   57   58 2    
   114   57   59 am   BACKBONE|DICT|INTERRES
   115   59   60 1    
   116   59  125 1    
   117   60   61 1    
   118   60   62 1    
   119   60  126 1    
   120   61  127 1    
   121   61  128 1    
   122   61  129 1    
   123   62   63 2    
   124   62   64 am   BACKBONE|DICT|INTERRES
   125   64   65 1    
   126   64  130 1    
   127   65   66 1    
   128   65   69 1    
   129   65  131 1    
   130   66   67 am   BACKBONE|DICT|INTERRES
   131   66   68 2    
   132   67  132 1    
   133   67  133 1    
   134   69   70 1    
   135   69  134 1    
   136   69  135 1    
   137   70   71 1    
   138   71  136 1    
   139   71  137 1    
@<TRIPOS>SUBSTRUCTURE
     1 UNK         1 GROUP             0       ****    0 ROOT    
