@<TRIPOS>MOLECULE
3R137
137   139    1
SMALL
USER_CHARGES


@<TRIPOS>ATOM
      1 CA         24.9507   -5.8854   -5.5461 C.3       0 UNK        -0.2020 
      2 C          25.4191   -5.4505   -4.1661 C.2       0 UNK         0.4855 
      3 O          24.5906   -5.1855   -3.2948 O.2       0 UNK        -0.5197 
      4 N          26.7423   -5.3660   -3.9714 N.am      1 UNK        -0.4892 
      5 CA         27.4314   -4.9403   -2.7458 C.3       1 UNK         0.0835 
      6 C6         28.9647   -5.0124   -2.9586 C.3       12 UNK        -0.0855 
      7 S7         29.9401   -4.7024   -1.4469 S.3       12 UNK        -0.2931 
      8 C8         31.4160   -3.8710   -2.1279 C.3       12 UNK         0.0378 
      9 C9         31.0930   -2.5256   -2.7677 C.ar      12 UNK        -0.0802 
     10 C10        31.2668   -2.3333   -4.1436 C.ar      12 UNK        -0.0944 
     11 C11        30.9653   -1.0998   -4.7294 C.ar      12 UNK        -0.0787 
     12 C12        30.4985   -0.0555   -3.9294 C.ar      12 UNK        -0.0862 
     13 C13        30.3087   -0.2362   -2.5582 C.ar      12 UNK        -0.0733 
     14 C14        30.6176   -1.4715   -1.9811 C.ar      12 UNK        -0.0832 
     15 C15        29.7512    0.8886   -1.7004 C.3       12 UNK         0.0240 
     16 S16        27.9687    0.6539   -1.4214 S.3       12 UNK        -0.2522 
     17 C17        27.2077    1.9591   -2.4448 C.3       12 UNK        -0.0967 
     18 CA         27.3625    1.7791   -3.9769 C.3       5 UNK         0.0660 
     19 N          26.9859    0.4402   -4.4473 N.am      5 UNK        -0.4015 
     20 C          27.1327   -0.0054   -5.7055 C.2       4 UNK         0.4946 
     21 O          27.6824    0.6400   -6.5973 O.2       4 UNK        -0.5353 
     22 CA         26.5148   -1.3654   -6.0670 C.3       4 UNK         0.0277 
     23 CB         27.5985   -2.4473   -6.2028 C.3       4 UNK        -0.1981 
     24 N          25.4821   -1.7879   -5.1179 N.am      4 UNK        -0.4209 
     25 C          24.2550   -1.2471   -5.0521 C.2       3 UNK         0.4942 
     26 O          23.8754   -0.3447   -5.7992 O.2       3 UNK        -0.5208 
     27 CA         23.3014   -1.7652   -3.9606 C.3       3 UNK         0.0250 
     28 CB         22.3502   -2.8290   -4.5303 C.3       3 UNK        -0.1990 
     29 N          24.0142   -2.3085   -2.8013 N.am      3 UNK        -0.4232 
     30 C          24.5907   -1.5455   -1.8599 C.2       2 UNK         0.4993 
     31 O          24.4944   -0.3186   -1.8309 O.2       2 UNK        -0.5286 
     32 CA         25.4484   -2.2569   -0.7944 C.3       2 UNK         0.0209 
     33 CB         24.6034   -2.5809    0.4478 C.3       2 UNK        -0.1931 
     34 N          26.1025   -3.4815   -1.2711 N.am      2 UNK        -0.4546 
     35 C          26.9555   -3.5383   -2.3043 C.2       1 UNK         0.5154 
     36 O          27.2948   -2.5505   -2.9538 O.2       1 UNK        -0.5181 
     37 C          26.6088    2.9042   -4.7166 C.2       5 UNK         0.5014 
     38 O          27.1871    3.9689   -4.9378 O.2       5 UNK        -0.5248 
     39 N          25.3462    2.6522   -5.0944 N.am      6 UNK        -0.4434 
     40 CA         24.5294    3.5740   -5.8861 C.3       6 UNK         0.0363 
     41 CB         23.0449    3.2126   -5.7179 C.3       6 UNK        -0.1936 
     42 C          24.9195    3.5726   -7.3743 C.2       6 UNK         0.5081 
     43 O          24.8170    4.6126   -8.0253 O.2       6 UNK        -0.5248 
     44 N          25.3462    2.4109   -7.8879 N.am      7 UNK        -0.4718 
     45 CA         25.7560    2.2234   -9.2809 C.3       7 UNK         0.0273 
     46 CB         25.6310    0.7353   -9.6484 C.3       7 UNK        -0.1935 
     47 C          27.1847    2.7183   -9.5594 C.2       7 UNK         0.5018 
     48 O          27.4425    3.1981  -10.6637 O.2       7 UNK        -0.5186 
     49 N          28.0809    2.5586   -8.5719 N.am      8 UNK        -0.4240 
     50 CA         29.5356    2.7493   -8.6452 C.3       8 UNK         0.0235 
     51 CB         29.8996    4.2302   -8.8810 C.3       8 UNK        -0.2000 
     52 C          30.1721    1.7897   -9.6695 C.2       8 UNK         0.4941 
     53 O          30.9620    2.2091  -10.5192 O.2       8 UNK        -0.5273 
     54 N          29.7758    0.5117   -9.5898 N.am      9 UNK        -0.4262 
     55 CA         30.1187   -0.5619  -10.5257 C.3       9 UNK         0.0264 
     56 CB         29.1113   -1.7119  -10.3363 C.3       9 UNK        -0.1955 
     57 C          31.5815   -1.0335  -10.3980 C.2       9 UNK         0.5031 
     58 O          31.8264   -2.1734   -9.9958 O.2       9 UNK        -0.5390 
     59 N          32.5252   -0.1396  -10.7265 N.am      10 UNK        -0.4204 
     60 CA         33.9923   -0.2747  -10.7152 C.3       10 UNK         0.0237 
     61 CB         34.4707   -1.3985  -11.6559 C.3       10 UNK        -0.1985 
     62 C          34.6007   -0.4222   -9.3085 C.2       10 UNK         0.4970 
     63 O          35.5366    0.3081   -8.9794 O.2       10 UNK        -0.4914 
     64 N          34.0300   -1.3252   -8.5058 N.am      11 UNK        -0.4285 
     65 CA         34.2993   -1.5452   -7.0785 C.3       11 UNK         0.1007 
     66 C          35.7338   -2.0812   -6.7867 C.2       11 UNK         0.5703 
     67 N          36.2090   -1.9954   -5.5505 N.am      11 UNK        -0.7361 
     68 O          36.4073   -2.6287   -7.6586 O.2       11 UNK        -0.4986 
     69 C69        33.8849   -0.3276   -6.1932 C.3       12 UNK        -0.0947 
     70 S70        32.2822    0.4306   -6.6415 S.3       12 UNK        -0.2240 
     71 C71        31.1026   -0.8923   -6.2301 C.3       12 UNK         0.0194 
     72 H72        24.1393   -6.6075   -5.4580 H         1 UNK         0.0906 
     73 H73        24.5845   -5.0264   -6.1074 H         1 UNK         0.0906 
     74 H74        25.7528   -6.3500   -6.1193 H         1 UNK         0.0906 
     75 H75        27.3537   -5.5927   -4.7426 H         1 UNK         0.3140 
     76 H76        27.1675   -5.6549   -1.9634 H         1 UNK         0.1085 
     77 H77        29.2417   -6.0041   -3.3200 H         1 UNK         0.0836 
     78 H78        29.2631   -4.3170   -3.7443 H         1 UNK         0.0836 
     79 H79        31.8995   -4.5367   -2.8446 H         1 UNK         0.0731 
     80 H80        32.1353   -3.7161   -1.3226 H         1 UNK         0.0731 
     81 H81        31.6249   -3.1464   -4.7599 H         1 UNK         0.1312 
     82 H82        30.2818    0.8963   -4.3889 H         1 UNK         0.1406 
     83 H83        30.4645   -1.6217   -0.9211 H         1 UNK         0.1631 
     84 H84        29.9434    1.8604   -2.1572 H         1 UNK         0.0717 
     85 H85        30.2606    0.8993   -0.7357 H         1 UNK         0.0717 
     86 H86        26.1496    1.9897   -2.1760 H         1 UNK         0.0934 
     87 H87        27.6213    2.9200   -2.1318 H         1 UNK         0.0934 
     88 H88        28.4122    1.9210   -4.2245 H         1 UNK         0.0739 
     89 H89        26.5987   -0.1850   -3.7531 H         1 UNK         0.3093 
     90 H90        26.0386   -1.2550   -7.0433 H         1 UNK         0.0818 
     91 H91        28.2677   -2.2166   -7.0315 H         1 UNK         0.0819 
     92 H92        28.2173   -2.5244   -5.3092 H         1 UNK         0.0819 
     93 H93        27.1647   -3.4266   -6.4029 H         1 UNK         0.0819 
     94 H94        25.7771   -2.4373   -4.3987 H         1 UNK         0.3041 
     95 H95        22.6942   -0.9194   -3.6301 H         1 UNK         0.0784 
     96 H96        21.7757   -2.4289   -5.3670 H         1 UNK         0.0793 
     97 H97        22.8878   -3.7037   -4.8946 H         1 UNK         0.0793 
     98 H98        21.6358   -3.1648   -3.7786 H         1 UNK         0.0793 
     99 H99        24.1489   -3.3162   -2.7722 H         1 UNK         0.3024 
    100 H100       26.2365   -1.5609   -0.5009 H         1 UNK         0.1171 
    101 H101       25.2169   -2.9922    1.2496 H         1 UNK         0.0786 
    102 H102       24.1242   -1.6818    0.8382 H         1 UNK         0.0786 
    103 H103       23.8144   -3.2999    0.2233 H         1 UNK         0.0786 
    104 H104       25.8265   -4.3437   -0.8231 H         1 UNK         0.2977 
    105 H105       24.9410    1.7500   -4.8836 H         1 UNK         0.3127 
    106 H106       24.6764    4.5869   -5.5044 H         1 UNK         0.0770 
    107 H107       22.8278    2.2082   -6.0838 H         1 UNK         0.0814 
    108 H108       22.4109    3.9051   -6.2734 H         1 UNK         0.0814 
    109 H109       22.7396    3.2626   -4.6726 H         1 UNK         0.0814 
    110 H110       25.4062    1.6071   -7.2796 H         1 UNK         0.2983 
    111 H111       25.0776    2.7896   -9.9236 H         1 UNK         0.0947 
    112 H112       25.8769    0.5726  -10.6988 H         1 UNK         0.0806 
    113 H113       24.6153    0.3707   -9.4936 H         1 UNK         0.0806 
    114 H114       26.3053    0.1139   -9.0586 H         1 UNK         0.0806 
    115 H115       27.7623    2.0747   -7.7339 H         1 UNK         0.3000 
    116 H116       29.9314    2.4632   -7.6691 H         1 UNK         0.0850 
    117 H117       30.9781    4.3790   -8.8167 H         1 UNK         0.0810 
    118 H118       29.4374    4.8745   -8.1331 H         1 UNK         0.0810 
    119 H119       29.5835    4.5769   -9.8652 H         1 UNK         0.0810 
    120 H120       29.1450    0.2662   -8.8395 H         1 UNK         0.3040 
    121 H121       29.9937   -0.1792  -11.5409 H         1 UNK         0.0766 
    122 H122       28.0875   -1.3768  -10.5029 H         1 UNK         0.0812 
    123 H123       29.1680   -2.1376   -9.3340 H         1 UNK         0.0812 
    124 H124       29.3045   -2.5197  -11.0435 H         1 UNK         0.0812 
    125 H125       32.1803    0.7978  -10.9269 H         1 UNK         0.3205 
    126 H126       34.3705    0.6663  -11.1182 H         1 UNK         0.0754 
    127 H127       35.5601   -1.4232  -11.7070 H         1 UNK         0.0769 
    128 H128       34.1019   -1.2489  -12.6706 H         1 UNK         0.0769 
    129 H129       34.1417   -2.3827  -11.3214 H         1 UNK         0.0769 
    130 H130       33.2642   -1.8643   -8.9030 H         1 UNK         0.2981 
    131 H131       33.6505   -2.3772   -6.8064 H         1 UNK         0.0541 
    132 H132       35.6704   -1.5705   -4.8126 H         1 UNK         0.3459 
    133 H133       37.1281   -2.3599   -5.3544 H         1 UNK         0.3459 
    134 H134       34.6404    0.4570   -6.2603 H         1 UNK         0.0612 
    135 H135       33.8372   -0.6154   -5.1420 H         1 UNK         0.0612 
    136 H136       30.1292   -0.6134   -6.6330 H         1 UNK         0.0624 
    137 H137       31.3845   -1.8149   -6.7380 H         1 UNK         0.0624 
@<TRIPOS>BOND
     1    1    2 1    
     2    1   72 1    
     3    1   73 1    
     4    1   74 1    
     5    2    3 2    
     6    2    4 am   BACKBONE|DICT|INTERRES
     7    4    5 1    
     8    4   75 1    
     9    5    6 1    
    10    5   35 1    
    11    5   76 1    
    12    6    7 1    
    13    6   77 1    
    14    6   78 1    
    15    7    8 1    
    16    8    9 1    
    17    8   79 1    
    18    8   80 1    
    19    9   10 ar   
    20    9   14 ar   
    21   10   11 ar   
    22   10   81 1    
    23   11   12 ar   
    24   11   71 1    
    25   12   13 ar   
    26   12   82 1    
    27   13   14 ar   
    28   13   15 1    
    29   14   83 1    
    30   15   16 1    
    31   15   84 1    
    32   15   85 1    
    33   16   17 1    
    34   17   18 1    
    35   17   86 1    
    36   17   87 1    
    37   18   19 1    
    38   18   37 1    
    39   18   88 1    
    40   19   20 am   BACKBONE|DICT|INTERRES
    41   19   89 1    
    42   20   21 2    
    43   20   22 1    
    44   22   23 1    
    45   22   24 1    
    46   22   90 1    
    47   23   91 1    
    48   23   92 1    
    49   23   93 1    
    50   24   25 am   BACKBONE|DICT|INTERRES
    51   24   94 1    
    52   25   26 2    
    53   25   27 1    
    54   27   28 1    
    55   27   29 1    
    56   27   95 1    
    57   28   96 1    
    58   28   97 1    
    59   28   98 1    
    60   29   30 am   BACKBONE|DICT|INTERRES
    61   29   99 1    
    62   30   31 2    
    63   30   32 1    
    64   32   33 1    
    65   32   34 1    
    66   32  100 1    
    67   33  101 1    
    68   33  102 1    
    69   33  103 1    
    70   34   35 am   BACKBONE|DICT|INTERRES
    71   34  104 1    
    72   35   36 2    
    73   37   38 2    
    74   37   39 am   BACKBONE|DICT|INTERRES
    75   39   40 1    
    76   39  105 1    
    77   40   41 1    
    78   40   42 1    
    79   40  106 1    
    80   41  107 1    
    81   41  108 1    
    82   41  109 1    
    83   42   43 2    
    84   42   44 am   BACKBONE|DICT|INTERRES
    85   44   45 1    
    86   44  110 1    
    87   45   46 1    
    88   45   47 1    
    89   45  111 1    
    90   46  112 1    
    91   46  113 1    
    92   46  114 1    
    93   47   48 2    
    94   47   49 am   BACKBONE|DICT|INTERRES
    95   49   50 1    
    96   49  115 1    
    97   50   51 1    
    98   50   52 1    
    99   50  116 1    
   100   51  117 1    
   101   51  118 1    
   102   51  119 1    
   103   52   53 2    
   104   52   54 am   BACKBONE|DICT|INTERRES
   105   54   55 1    
   106   54  120 1    
   107   55   56 1    
   108   55   57 1    
   109   55  121 1    
   110   56  122 1    
   111   56  123 1    
   112   56  124 1    
   113   57   58 2    
   114   57   59 am   BACKBONE|DICT|INTERRES
   115   59   60 1    
   116   59  125 1    
   117   60   61 1    
   118   60   62 1    
   119   60  126 1    
   120   61  127 1    
   121   61  128 1    
   122   61  129 1    
   123   62   63 2    
   124   62   64 am   BACKBONE|DICT|INTERRES
   125   64   65 1    
   126   64  130 1    
   127   65   66 1    
   128   65   69 1    
   129   65  131 1    
   130   66   67 am   BACKBONE|DICT|INTERRES
   131   66   68 2    
   132   67  132 1    
   133   67  133 1    
   134   69   70 1    
   135   69  134 1    
   136   69  135 1    
   137   70   71 1    
   138   71  136 1    
   139   71  137 1    
@<TRIPOS>SUBSTRUCTURE
     1 UNK         1 GROUP             0       ****    0 ROOT    
