@<TRIPOS>MOLECULE
3R137
137   139    1
SMALL
USER_CHARGES


@<TRIPOS>ATOM
      1 CA         27.1537   -1.0457    4.4576 C.3       0 UNK        -0.2020 
      2 C          27.1792   -1.8529    3.1679 C.2       0 UNK         0.4855 
      3 O          26.5745   -2.9240    3.1092 O.2       0 UNK        -0.5197 
      4 N          27.8789   -1.3463    2.1424 N.am      1 UNK        -0.4892 
      5 CA         27.9984   -1.9238    0.7961 C.3       1 UNK         0.0835 
      6 C6         28.7066   -3.3119    0.8066 C.3       12 UNK        -0.0855 
      7 S7         29.5215   -3.9073   -0.7253 S.3       12 UNK        -0.2931 
      8 C8         29.7015   -2.4739   -1.8437 C.3       12 UNK         0.0378 
      9 C9         30.0788   -2.9335   -3.2436 C.ar      12 UNK        -0.0802 
     10 C10        31.3091   -2.5906   -3.8119 C.ar      12 UNK        -0.0944 
     11 C11        31.6417   -3.0359   -5.0958 C.ar      12 UNK        -0.0787 
     12 C12        30.7311   -3.8211   -5.8137 C.ar      12 UNK        -0.0862 
     13 C13        29.4986   -4.1737   -5.2539 C.ar      12 UNK        -0.0733 
     14 C14        29.1800   -3.7148   -3.9739 C.ar      12 UNK        -0.0832 
     15 C15        28.5564   -5.1247   -5.9861 C.3       12 UNK         0.0240 
     16 S16        26.8107   -4.5813   -5.9738 S.3       12 UNK        -0.2522 
     17 C17        26.5399   -4.0668   -7.7020 C.3       12 UNK        -0.0967 
     18 CA         26.3457   -2.5476   -7.9089 C.3       5 UNK         0.0660 
     19 N          25.2020   -1.9903   -7.1837 N.am      5 UNK        -0.4015 
     20 C          24.5807   -0.8627   -7.5594 C.2       4 UNK         0.4946 
     21 O          24.9024   -0.1994   -8.5476 O.2       4 UNK        -0.5353 
     22 CA         23.4262   -0.3770   -6.6690 C.3       4 UNK         0.0277 
     23 CB         22.2154   -1.3204   -6.7644 C.3       4 UNK        -0.1981 
     24 N          23.8153   -0.2060   -5.2674 N.am      4 UNK        -0.4209 
     25 C          24.7592    0.6430   -4.8361 C.2       3 UNK         0.4942 
     26 O          25.4259    1.3632   -5.5766 O.2       3 UNK        -0.5208 
     27 CA         25.0140    0.7053   -3.3220 C.3       3 UNK         0.0250 
     28 CB         24.1282    1.7833   -2.6772 C.3       3 UNK        -0.1990 
     29 N          24.8358   -0.5599   -2.6049 N.am      3 UNK        -0.4232 
     30 C          25.4808   -1.7054   -2.8633 C.2       2 UNK         0.4993 
     31 O          26.2286   -1.8762   -3.8287 O.2       2 UNK        -0.5286 
     32 CA         25.2969   -2.8264   -1.8251 C.3       2 UNK         0.0209 
     33 CB         25.1771   -4.2106   -2.4850 C.3       2 UNK        -0.1931 
     34 N          26.4207   -2.8264   -0.8857 N.am      2 UNK        -0.4546 
     35 C          26.6416   -1.8879    0.0462 C.2       1 UNK         0.5154 
     36 O          25.8356   -0.9861    0.2931 O.2       1 UNK        -0.5181 
     37 C          27.6307   -1.7360   -7.6716 C.2       5 UNK         0.5014 
     38 O          28.4264   -1.6167   -8.6033 O.2       5 UNK        -0.5248 
     39 N          27.7865   -1.1457   -6.4746 N.am      6 UNK        -0.4434 
     40 CA         28.8853   -0.2336   -6.1489 C.3       6 UNK         0.0363 
     41 CB         28.7996    0.1981   -4.6778 C.3       6 UNK        -0.1936 
     42 C          28.9102    0.9998   -7.0647 C.2       6 UNK         0.5081 
     43 O          29.9695    1.3378   -7.5888 O.2       6 UNK        -0.5248 
     44 N          27.7430    1.6255   -7.2756 N.am      7 UNK        -0.4718 
     45 CA         27.5654    2.7515   -8.1933 C.3       7 UNK         0.0273 
     46 CB         26.1716    3.3688   -7.9999 C.3       7 UNK        -0.1935 
     47 C          27.7850    2.3594   -9.6619 C.2       7 UNK         0.5018 
     48 O          28.4461    3.1049  -10.3847 O.2       7 UNK        -0.5186 
     49 N          27.2546    1.1962  -10.0705 N.am      8 UNK        -0.4240 
     50 CA         27.3949    0.6569  -11.4273 C.3       8 UNK         0.0235 
     51 CB         26.4911   -0.5741  -11.5976 C.3       8 UNK        -0.2000 
     52 C          28.8495    0.3183  -11.7972 C.2       8 UNK         0.4941 
     53 O          29.2834    0.6472  -12.9018 O.2       8 UNK        -0.5273 
     54 N          29.5790   -0.3126  -10.8671 N.am      9 UNK        -0.4262 
     55 CA         30.9947   -0.6603  -11.0172 C.3       9 UNK         0.0264 
     56 CB         31.3091   -1.8491  -10.0956 C.3       9 UNK        -0.1955 
     57 C          31.9542    0.5152  -10.7437 C.2       9 UNK         0.5031 
     58 O          33.1415    0.3897  -11.0481 O.2       9 UNK        -0.5390 
     59 N          31.4376    1.6184  -10.1805 N.am      10 UNK        -0.4204 
     60 CA         32.1494    2.8273   -9.7457 C.3       10 UNK         0.0237 
     61 CB         32.7582    3.5799  -10.9483 C.3       10 UNK        -0.1985 
     62 C          33.1662    2.5393   -8.6225 C.2       10 UNK         0.4970 
     63 O          34.2992    3.0236   -8.6673 O.2       10 UNK        -0.4914 
     64 N          32.7348    1.7433   -7.6390 N.am      11 UNK        -0.4285 
     65 CA         33.5003    1.3687   -6.4441 C.3       11 UNK         0.1007 
     66 C          33.6276    2.5441   -5.4384 C.2       11 UNK         0.5703 
     67 N          34.7079    2.5850   -4.6701 N.am      11 UNK        -0.7361 
     68 O          32.7473    3.3951   -5.3200 O.2       11 UNK        -0.4986 
     69 C69        32.8952    0.1145   -5.7611 C.3       12 UNK        -0.0947 
     70 S70        32.9352   -1.3350   -6.8658 S.3       12 UNK        -0.2240 
     71 C71        33.0062   -2.7180   -5.6899 C.3       12 UNK         0.0194 
     72 H72        26.1290   -0.7726    4.7083 H         1 UNK         0.0906 
     73 H73        27.5592   -1.6370    5.2783 H         1 UNK         0.0906 
     74 H74        27.7388   -0.1296    4.3791 H         1 UNK         0.0906 
     75 H75        28.3203   -0.4439    2.2575 H         1 UNK         0.3140 
     76 H76        28.6417   -1.2171    0.2731 H         1 UNK         0.1085 
     77 H77        28.0161   -4.0872    1.1440 H         1 UNK         0.0836 
     78 H78        29.4938   -3.2947    1.5622 H         1 UNK         0.0836 
     79 H79        28.7707   -1.9152   -1.9240 H         1 UNK         0.0731 
     80 H80        30.4499   -1.7901   -1.4399 H         1 UNK         0.0731 
     81 H81        32.0136   -1.9910   -3.2521 H         1 UNK         0.1312 
     82 H82        30.9983   -4.1793   -6.7986 H         1 UNK         0.1406 
     83 H83        28.2339   -3.9861   -3.5297 H         1 UNK         0.1631 
     84 H84        28.6086   -6.0939   -5.4887 H         1 UNK         0.0717 
     85 H85        28.8989   -5.2974   -7.0065 H         1 UNK         0.0717 
     86 H86        27.3471   -4.4291   -8.3403 H         1 UNK         0.0934 
     87 H87        25.6490   -4.5882   -8.0555 H         1 UNK         0.0934 
     88 H88        26.1206   -2.4329   -8.9710 H         1 UNK         0.0739 
     89 H89        24.9278   -2.4602   -6.3326 H         1 UNK         0.3093 
     90 H90        23.1195    0.6022   -7.0434 H         1 UNK         0.0818 
     91 H91        21.3546   -0.9138   -6.2332 H         1 UNK         0.0819 
     92 H92        21.9133   -1.4626   -7.8031 H         1 UNK         0.0819 
     93 H93        22.4295   -2.3060   -6.3493 H         1 UNK         0.0819 
     94 H94        23.3237   -0.7593   -4.5811 H         1 UNK         0.3041 
     95 H95        26.0541    1.0025   -3.1814 H         1 UNK         0.0784 
     96 H96        24.2601    2.7458   -3.1739 H         1 UNK         0.0793 
     97 H97        23.0698    1.5270   -2.7385 H         1 UNK         0.0793 
     98 H98        24.3795    1.9276   -1.6261 H         1 UNK         0.0793 
     99 H99        24.2906   -0.5101   -1.7553 H         1 UNK         0.3024 
    100 H100       24.3747   -2.6437   -1.2684 H         1 UNK         0.1171 
    101 H101       24.3677   -4.2253   -3.2161 H         1 UNK         0.0786 
    102 H102       24.9610   -4.9829   -1.7467 H         1 UNK         0.0786 
    103 H103       26.0885   -4.4968   -3.0075 H         1 UNK         0.0786 
    104 H104       27.1422   -3.5185   -1.0400 H         1 UNK         0.2977 
    105 H105       27.1158   -1.3373   -5.7378 H         1 UNK         0.3127 
    106 H106       29.8154   -0.7868   -6.2941 H         1 UNK         0.0770 
    107 H107       29.6930    0.7478   -4.3807 H         1 UNK         0.0814 
    108 H108       28.7074   -0.6599   -4.0160 H         1 UNK         0.0814 
    109 H109       27.9452    0.8485   -4.4984 H         1 UNK         0.0814 
    110 H110       26.9161    1.3193   -6.7672 H         1 UNK         0.2983 
    111 H111       28.3108    3.5085   -7.9395 H         1 UNK         0.0947 
    112 H112       26.0180    4.2111   -8.6758 H         1 UNK         0.0806 
    113 H113       26.0421    3.7407   -6.9834 H         1 UNK         0.0806 
    114 H114       25.3792    2.6439   -8.1922 H         1 UNK         0.0806 
    115 H115       26.6932    0.6614   -9.4162 H         1 UNK         0.3000 
    116 H116       27.0496    1.4269  -12.1206 H         1 UNK         0.0850 
    117 H117       26.5203   -0.9381  -12.6255 H         1 UNK         0.0810 
    118 H118       25.4518   -0.3415  -11.3646 H         1 UNK         0.0810 
    119 H119       26.8046   -1.3957  -10.9542 H         1 UNK         0.0810 
    120 H120       29.1309   -0.6064   -9.9996 H         1 UNK         0.3040 
    121 H121       31.1692   -0.9806  -12.0465 H         1 UNK         0.0766 
    122 H122       32.3623   -2.1277  -10.1493 H         1 UNK         0.0812 
    123 H123       30.7246   -2.7275  -10.3691 H         1 UNK         0.0812 
    124 H124       31.0837   -1.6134   -9.0558 H         1 UNK         0.0812 
    125 H125       30.4567    1.5901   -9.9332 H         1 UNK         0.3205 
    126 H126       31.3910    3.4763   -9.3048 H         1 UNK         0.0754 
    127 H127       33.1728    4.5397  -10.6379 H         1 UNK         0.0769 
    128 H128       32.0046    3.7837  -11.7091 H         1 UNK         0.0769 
    129 H129       33.5645    3.0147  -11.4168 H         1 UNK         0.0769 
    130 H130       31.7589    1.4512   -7.6506 H         1 UNK         0.2981 
    131 H131       34.5097    1.1151   -6.7747 H         1 UNK         0.0541 
    132 H132       35.4322    1.8882   -4.7499 H         1 UNK         0.3459 
    133 H133       34.8042    3.3326   -4.0008 H         1 UNK         0.3459 
    134 H134       31.8642    0.2963   -5.4560 H         1 UNK         0.0612 
    135 H135       33.4493   -0.1269   -4.8525 H         1 UNK         0.0612 
    136 H136       33.7337   -2.5027   -4.9059 H         1 UNK         0.0624 
    137 H137       33.3824   -3.5972   -6.2149 H         1 UNK         0.0624 
@<TRIPOS>BOND
     1    1    2 1    
     2    1   72 1    
     3    1   73 1    
     4    1   74 1    
     5    2    3 2    
     6    2    4 am   BACKBONE|DICT|INTERRES
     7    4    5 1    
     8    4   75 1    
     9    5    6 1    
    10    5   35 1    
    11    5   76 1    
    12    6    7 1    
    13    6   77 1    
    14    6   78 1    
    15    7    8 1    
    16    8    9 1    
    17    8   79 1    
    18    8   80 1    
    19    9   10 ar   
    20    9   14 ar   
    21   10   11 ar   
    22   10   81 1    
    23   11   12 ar   
    24   11   71 1    
    25   12   13 ar   
    26   12   82 1    
    27   13   14 ar   
    28   13   15 1    
    29   14   83 1    
    30   15   16 1    
    31   15   84 1    
    32   15   85 1    
    33   16   17 1    
    34   17   18 1    
    35   17   86 1    
    36   17   87 1    
    37   18   19 1    
    38   18   37 1    
    39   18   88 1    
    40   19   20 am   BACKBONE|DICT|INTERRES
    41   19   89 1    
    42   20   21 2    
    43   20   22 1    
    44   22   23 1    
    45   22   24 1    
    46   22   90 1    
    47   23   91 1    
    48   23   92 1    
    49   23   93 1    
    50   24   25 am   BACKBONE|DICT|INTERRES
    51   24   94 1    
    52   25   26 2    
    53   25   27 1    
    54   27   28 1    
    55   27   29 1    
    56   27   95 1    
    57   28   96 1    
    58   28   97 1    
    59   28   98 1    
    60   29   30 am   BACKBONE|DICT|INTERRES
    61   29   99 1    
    62   30   31 2    
    63   30   32 1    
    64   32   33 1    
    65   32   34 1    
    66   32  100 1    
    67   33  101 1    
    68   33  102 1    
    69   33  103 1    
    70   34   35 am   BACKBONE|DICT|INTERRES
    71   34  104 1    
    72   35   36 2    
    73   37   38 2    
    74   37   39 am   BACKBONE|DICT|INTERRES
    75   39   40 1    
    76   39  105 1    
    77   40   41 1    
    78   40   42 1    
    79   40  106 1    
    80   41  107 1    
    81   41  108 1    
    82   41  109 1    
    83   42   43 2    
    84   42   44 am   BACKBONE|DICT|INTERRES
    85   44   45 1    
    86   44  110 1    
    87   45   46 1    
    88   45   47 1    
    89   45  111 1    
    90   46  112 1    
    91   46  113 1    
    92   46  114 1    
    93   47   48 2    
    94   47   49 am   BACKBONE|DICT|INTERRES
    95   49   50 1    
    96   49  115 1    
    97   50   51 1    
    98   50   52 1    
    99   50  116 1    
   100   51  117 1    
   101   51  118 1    
   102   51  119 1    
   103   52   53 2    
   104   52   54 am   BACKBONE|DICT|INTERRES
   105   54   55 1    
   106   54  120 1    
   107   55   56 1    
   108   55   57 1    
   109   55  121 1    
   110   56  122 1    
   111   56  123 1    
   112   56  124 1    
   113   57   58 2    
   114   57   59 am   BACKBONE|DICT|INTERRES
   115   59   60 1    
   116   59  125 1    
   117   60   61 1    
   118   60   62 1    
   119   60  126 1    
   120   61  127 1    
   121   61  128 1    
   122   61  129 1    
   123   62   63 2    
   124   62   64 am   BACKBONE|DICT|INTERRES
   125   64   65 1    
   126   64  130 1    
   127   65   66 1    
   128   65   69 1    
   129   65  131 1    
   130   66   67 am   BACKBONE|DICT|INTERRES
   131   66   68 2    
   132   67  132 1    
   133   67  133 1    
   134   69   70 1    
   135   69  134 1    
   136   69  135 1    
   137   70   71 1    
   138   71  136 1    
   139   71  137 1    
@<TRIPOS>SUBSTRUCTURE
     1 UNK         1 GROUP             0       ****    0 ROOT    
