@<TRIPOS>MOLECULE
3R137
137   139    1
SMALL
USER_CHARGES


@<TRIPOS>ATOM
      1 CA         24.9234   -4.5269   -3.8399 C.3       0 UNK        -0.2020 
      2 C          25.8653   -3.4502   -3.3250 C.2       0 UNK         0.4855 
      3 O          25.9166   -2.3621   -3.9019 O.2       0 UNK        -0.5197 
      4 N          26.6187   -3.7419   -2.2559 N.am      1 UNK        -0.4892 
      5 CA         27.5358   -2.8121   -1.5832 C.3       1 UNK         0.0835 
      6 C6         28.6647   -2.3163   -2.5366 C.3       12 UNK        -0.0855 
      7 S7         30.2622   -2.0677   -1.6973 S.3       12 UNK        -0.2931 
      8 C8         31.1080   -3.6628   -1.9843 C.3       12 UNK         0.0378 
      9 C9         31.5240   -3.8573   -3.4386 C.ar      12 UNK        -0.0802 
     10 C10        32.7571   -3.3782   -3.8954 C.ar      12 UNK        -0.0944 
     11 C11        33.1342   -3.5487   -5.2322 C.ar      12 UNK        -0.0787 
     12 C12        32.2581   -4.1836   -6.1180 C.ar      12 UNK        -0.0862 
     13 C13        31.0258   -4.6686   -5.6730 C.ar      12 UNK        -0.0733 
     14 C14        30.6810   -4.5326   -4.3270 C.ar      12 UNK        -0.0832 
     15 C15        30.0684   -5.3405   -6.6455 C.3       12 UNK         0.0240 
     16 S16        29.1915   -4.1241   -7.6785 S.3       12 UNK        -0.2522 
     17 C17        28.0134   -3.3810   -6.4977 C.3       12 UNK        -0.0967 
     18 CA         27.3498   -2.1062   -7.0801 C.3       5 UNK         0.0660 
     19 N          25.9392   -1.9742   -6.7003 N.am      5 UNK        -0.4015 
     20 C          25.0337   -1.3330   -7.4513 C.2       4 UNK         0.4946 
     21 O          25.3067   -0.7849   -8.5187 O.2       4 UNK        -0.5353 
     22 CA         23.5873   -1.2625   -6.9327 C.3       4 UNK         0.0277 
     23 CB         22.8275   -2.5467   -7.3018 C.3       4 UNK        -0.1981 
     24 N          23.4453   -1.0094   -5.4958 N.am      4 UNK        -0.4209 
     25 C          23.9652    0.0287   -4.8266 C.2       3 UNK         0.4942 
     26 O          24.7243    0.8529   -5.3369 O.2       3 UNK        -0.5208 
     27 CA         23.5837    0.1836   -3.3460 C.3       3 UNK         0.0250 
     28 CB         22.6261   -0.9013   -2.8064 C.3       3 UNK        -0.1990 
     29 N          24.8041    0.1996   -2.5461 N.am      3 UNK        -0.4232 
     30 C          25.0078    0.9374   -1.4455 C.2       2 UNK         0.4993 
     31 O          24.1711    1.7204   -0.9919 O.2       2 UNK        -0.5286 
     32 CA         26.3739    0.7955   -0.7324 C.3       2 UNK         0.0209 
     33 CB         26.2590    0.9473    0.8000 C.3       2 UNK        -0.1931 
     34 N          27.1094   -0.4285   -1.0883 N.am      2 UNK        -0.4546 
     35 C          26.7213   -1.6971   -0.8871 C.2       1 UNK         0.5154 
     36 O          25.7300   -2.0116   -0.2242 O.2       1 UNK        -0.5181 
     37 C          28.1447   -0.8244   -6.7608 C.2       5 UNK         0.5014 
     38 O          29.1005   -0.5202   -7.4727 O.2       5 UNK        -0.5248 
     39 N          27.7152   -0.0528   -5.7500 N.am      6 UNK        -0.4434 
     40 CA         28.2461    1.2893   -5.4847 C.3       6 UNK         0.0363 
     41 CB         27.8141    1.7751   -4.0942 C.3       6 UNK        -0.1936 
     42 C          27.8538    2.2981   -6.5773 C.2       6 UNK         0.5081 
     43 O          28.6302    3.2073   -6.8612 O.2       6 UNK        -0.5248 
     44 N          26.6830    2.1077   -7.1985 N.am      7 UNK        -0.4718 
     45 CA         26.2668    2.8442   -8.3902 C.3       7 UNK         0.0273 
     46 CB         24.7437    2.7291   -8.5689 C.3       7 UNK        -0.1935 
     47 C          27.0182    2.3724   -9.6484 C.2       7 UNK         0.5018 
     48 O          27.5651    3.2072  -10.3696 O.2       7 UNK        -0.5186 
     49 N          27.0183    1.0548   -9.9004 N.am      8 UNK        -0.4240 
     50 CA         27.5428    0.4541  -11.1300 C.3       8 UNK         0.0235 
     51 CB         26.9665   -0.9609  -11.3039 C.3       8 UNK        -0.2000 
     52 C          29.0770    0.4223  -11.2234 C.2       8 UNK         0.4941 
     53 O          29.6169    0.7972  -12.2651 O.2       8 UNK        -0.5273 
     54 N          29.7502   -0.0538  -10.1674 N.am      9 UNK        -0.4262 
     55 CA         31.1956   -0.3082  -10.1520 C.3       9 UNK         0.0264 
     56 CB         31.4513   -1.7013   -9.5467 C.3       9 UNK        -0.1955 
     57 C          31.9855    0.7616   -9.3823 C.2       9 UNK         0.5031 
     58 O          33.2112    0.6595   -9.3209 O.2       9 UNK        -0.5390 
     59 N          31.2947    1.7446   -8.7862 N.am      10 UNK        -0.4204 
     60 CA         31.7992    2.8488   -7.9544 C.3       10 UNK         0.0237 
     61 CB         32.8430    3.7075   -8.6973 C.3       10 UNK        -0.1985 
     62 C          32.3155    2.4144   -6.5699 C.2       10 UNK         0.4970 
     63 O          32.0430    3.1059   -5.5881 O.2       10 UNK        -0.4914 
     64 N          33.0500    1.2988   -6.5066 N.am      11 UNK        -0.4285 
     65 CA         33.6067    0.7210   -5.2758 C.3       11 UNK         0.1007 
     66 C          32.5693    0.0945   -4.3046 C.2       11 UNK         0.5703 
     67 N          31.3909   -0.3126   -4.7593 N.am      11 UNK        -0.7361 
     68 O          32.8446   -0.0105   -3.1122 O.2       11 UNK        -0.4986 
     69 C69        34.7816   -0.2473   -5.5705 C.3       12 UNK        -0.0947 
     70 S70        34.3834   -1.5839   -6.7529 S.3       12 UNK        -0.2240 
     71 C71        34.4965   -3.0831   -5.7254 C.3       12 UNK         0.0194 
     72 H72        24.9737   -5.4338   -3.2377 H         1 UNK         0.0906 
     73 H73        23.8960   -4.1655   -3.8222 H         1 UNK         0.0906 
     74 H74        25.1750   -4.7879   -4.8672 H         1 UNK         0.0906 
     75 H75        26.5044   -4.6372   -1.8005 H         1 UNK         0.3140 
     76 H76        27.9933   -3.3892   -0.7778 H         1 UNK         0.1085 
     77 H77        28.8125   -3.0506   -3.3185 H         1 UNK         0.0836 
     78 H78        28.3918   -1.4156   -3.0873 H         1 UNK         0.0836 
     79 H79        30.4611   -4.4796   -1.6604 H         1 UNK         0.0731 
     80 H80        31.9911   -3.7073   -1.3452 H         1 UNK         0.0731 
     81 H81        33.4206   -2.8689   -3.2097 H         1 UNK         0.1312 
     82 H82        32.5357   -4.2986   -7.1570 H         1 UNK         0.1406 
     83 H83        29.7408   -4.9361   -3.9775 H         1 UNK         0.1631 
     84 H84        29.3424   -5.9606   -6.1173 H         1 UNK         0.0717 
     85 H85        30.6288   -6.0138   -7.2957 H         1 UNK         0.0717 
     86 H86        27.2612   -4.1408   -6.2813 H         1 UNK         0.0934 
     87 H87        28.5125   -3.1727   -5.5526 H         1 UNK         0.0934 
     88 H88        27.3660   -2.2032   -8.1675 H         1 UNK         0.0739 
     89 H89        25.6815   -2.3003   -5.7727 H         1 UNK         0.3093 
     90 H90        23.1076   -0.4277   -7.4481 H         1 UNK         0.0818 
     91 H91        21.7668   -2.4638   -7.0643 H         1 UNK         0.0819 
     92 H92        22.9014   -2.7506   -8.3712 H         1 UNK         0.0819 
     93 H93        23.2234   -3.4166   -6.7761 H         1 UNK         0.0819 
     94 H94        22.8474   -1.6428   -4.9860 H         1 UNK         0.3041 
     95 H95        23.0848    1.1517   -3.2669 H         1 UNK         0.0784 
     96 H96        21.6924   -0.9290   -3.3698 H         1 UNK         0.0793 
     97 H97        23.0753   -1.8945   -2.8383 H         1 UNK         0.0793 
     98 H98        22.3599   -0.7003   -1.7684 H         1 UNK         0.0793 
     99 H99        25.5309   -0.4306   -2.8621 H         1 UNK         0.3024 
    100 H100       26.9779    1.6294   -1.0935 H         1 UNK         0.1171 
    101 H101       25.8664    1.9291    1.0679 H         1 UNK         0.0786 
    102 H102       25.5899    0.2038    1.2338 H         1 UNK         0.0786 
    103 H103       27.2310    0.8475    1.2830 H         1 UNK         0.0786 
    104 H104       27.9704   -0.2871   -1.5983 H         1 UNK         0.2977 
    105 H105       26.8868   -0.3318   -5.2427 H         1 UNK         0.3127 
    106 H106       29.3353    1.2336   -5.4892 H         1 UNK         0.0770 
    107 H107       26.7314    1.8555   -4.0063 H         1 UNK         0.0814 
    108 H108       28.2286    2.7625   -3.8861 H         1 UNK         0.0814 
    109 H109       28.1769    1.1063   -3.3162 H         1 UNK         0.0814 
    110 H110       26.0533    1.3970   -6.8417 H         1 UNK         0.2983 
    111 H111       26.5027    3.9005   -8.2413 H         1 UNK         0.0947 
    112 H112       24.4099    3.2994   -9.4367 H         1 UNK         0.0806 
    113 H113       24.2144    3.1207   -7.7000 H         1 UNK         0.0806 
    114 H114       24.4233    1.6978   -8.7148 H         1 UNK         0.0806 
    115 H115       26.4973    0.4377   -9.2802 H         1 UNK         0.3000 
    116 H116       27.1824    1.0558  -11.9676 H         1 UNK         0.0850 
    117 H117       27.2668   -1.6240  -10.4924 H         1 UNK         0.0810 
    118 H118       25.8769   -0.9439  -11.3344 H         1 UNK         0.0810 
    119 H119       27.3095   -1.4112  -12.2364 H         1 UNK         0.0810 
    120 H120       29.2556   -0.2989   -9.3115 H         1 UNK         0.3040 
    121 H121       31.5857   -0.3160  -11.1718 H         1 UNK         0.0766 
    122 H122       31.1776   -1.7449   -8.4919 H         1 UNK         0.0812 
    123 H123       32.5066   -1.9691   -9.6133 H         1 UNK         0.0812 
    124 H124       30.8881   -2.4739  -10.0701 H         1 UNK         0.0812 
    125 H125       30.2881    1.6990   -8.8663 H         1 UNK         0.3205 
    126 H126       30.9418    3.4963   -7.7777 H         1 UNK         0.0754 
    127 H127       33.0949    4.5958   -8.1166 H         1 UNK         0.0769 
    128 H128       32.4632    4.0475   -9.6608 H         1 UNK         0.0769 
    129 H129       33.7729    3.1667   -8.8740 H         1 UNK         0.0769 
    130 H130       33.2481    0.8040   -7.3712 H         1 UNK         0.2981 
    131 H131       34.0392    1.5563   -4.7213 H         1 UNK         0.0541 
    132 H132       31.1701   -0.2677   -5.7413 H         1 UNK         0.3459 
    133 H133       30.7589   -0.7496   -4.1090 H         1 UNK         0.3459 
    134 H134       35.6066    0.3207   -6.0028 H         1 UNK         0.0612 
    135 H135       35.1782   -0.6648   -4.6437 H         1 UNK         0.0612 
    136 H136       34.9397   -3.8760   -6.3295 H         1 UNK         0.0624 
    137 H137       35.1828   -2.9281   -4.8921 H         1 UNK         0.0624 
@<TRIPOS>BOND
     1    1    2 1    
     2    1   72 1    
     3    1   73 1    
     4    1   74 1    
     5    2    3 2    
     6    2    4 am   BACKBONE|DICT|INTERRES
     7    4    5 1    
     8    4   75 1    
     9    5    6 1    
    10    5   35 1    
    11    5   76 1    
    12    6    7 1    
    13    6   77 1    
    14    6   78 1    
    15    7    8 1    
    16    8    9 1    
    17    8   79 1    
    18    8   80 1    
    19    9   10 ar   
    20    9   14 ar   
    21   10   11 ar   
    22   10   81 1    
    23   11   12 ar   
    24   11   71 1    
    25   12   13 ar   
    26   12   82 1    
    27   13   14 ar   
    28   13   15 1    
    29   14   83 1    
    30   15   16 1    
    31   15   84 1    
    32   15   85 1    
    33   16   17 1    
    34   17   18 1    
    35   17   86 1    
    36   17   87 1    
    37   18   19 1    
    38   18   37 1    
    39   18   88 1    
    40   19   20 am   BACKBONE|DICT|INTERRES
    41   19   89 1    
    42   20   21 2    
    43   20   22 1    
    44   22   23 1    
    45   22   24 1    
    46   22   90 1    
    47   23   91 1    
    48   23   92 1    
    49   23   93 1    
    50   24   25 am   BACKBONE|DICT|INTERRES
    51   24   94 1    
    52   25   26 2    
    53   25   27 1    
    54   27   28 1    
    55   27   29 1    
    56   27   95 1    
    57   28   96 1    
    58   28   97 1    
    59   28   98 1    
    60   29   30 am   BACKBONE|DICT|INTERRES
    61   29   99 1    
    62   30   31 2    
    63   30   32 1    
    64   32   33 1    
    65   32   34 1    
    66   32  100 1    
    67   33  101 1    
    68   33  102 1    
    69   33  103 1    
    70   34   35 am   BACKBONE|DICT|INTERRES
    71   34  104 1    
    72   35   36 2    
    73   37   38 2    
    74   37   39 am   BACKBONE|DICT|INTERRES
    75   39   40 1    
    76   39  105 1    
    77   40   41 1    
    78   40   42 1    
    79   40  106 1    
    80   41  107 1    
    81   41  108 1    
    82   41  109 1    
    83   42   43 2    
    84   42   44 am   BACKBONE|DICT|INTERRES
    85   44   45 1    
    86   44  110 1    
    87   45   46 1    
    88   45   47 1    
    89   45  111 1    
    90   46  112 1    
    91   46  113 1    
    92   46  114 1    
    93   47   48 2    
    94   47   49 am   BACKBONE|DICT|INTERRES
    95   49   50 1    
    96   49  115 1    
    97   50   51 1    
    98   50   52 1    
    99   50  116 1    
   100   51  117 1    
   101   51  118 1    
   102   51  119 1    
   103   52   53 2    
   104   52   54 am   BACKBONE|DICT|INTERRES
   105   54   55 1    
   106   54  120 1    
   107   55   56 1    
   108   55   57 1    
   109   55  121 1    
   110   56  122 1    
   111   56  123 1    
   112   56  124 1    
   113   57   58 2    
   114   57   59 am   BACKBONE|DICT|INTERRES
   115   59   60 1    
   116   59  125 1    
   117   60   61 1    
   118   60   62 1    
   119   60  126 1    
   120   61  127 1    
   121   61  128 1    
   122   61  129 1    
   123   62   63 2    
   124   62   64 am   BACKBONE|DICT|INTERRES
   125   64   65 1    
   126   64  130 1    
   127   65   66 1    
   128   65   69 1    
   129   65  131 1    
   130   66   67 am   BACKBONE|DICT|INTERRES
   131   66   68 2    
   132   67  132 1    
   133   67  133 1    
   134   69   70 1    
   135   69  134 1    
   136   69  135 1    
   137   70   71 1    
   138   71  136 1    
   139   71  137 1    
@<TRIPOS>SUBSTRUCTURE
     1 UNK         1 GROUP             0       ****    0 ROOT    
