@<TRIPOS>MOLECULE
3R137
137   139    1
SMALL
USER_CHARGES


@<TRIPOS>ATOM
      1 CA         28.6565    0.0228    0.7938 C.3       0 UNK        -0.2020 
      2 C          28.0630   -0.6794   -0.4171 C.2       0 UNK         0.4855 
      3 O          27.5201   -0.0160   -1.3001 O.2       0 UNK        -0.5197 
      4 N          28.1492   -2.0172   -0.4550 N.am      1 UNK        -0.4892 
      5 CA         27.7243   -2.8992   -1.5561 C.3       1 UNK         0.0835 
      6 C6         27.9670   -4.3975   -1.2274 C.3       12 UNK        -0.0855 
      7 S7         29.6276   -4.7346   -0.5373 S.3       12 UNK        -0.2931 
      8 C8         30.4682   -5.5950   -1.9067 C.3       12 UNK         0.0378 
      9 C9         30.5977   -4.7256   -3.1496 C.ar      12 UNK        -0.0802 
     10 C10        31.2711   -3.5008   -3.0904 C.ar      12 UNK        -0.0944 
     11 C11        31.3764   -2.6836   -4.2199 C.ar      12 UNK        -0.0787 
     12 C12        30.7950   -3.1141   -5.4186 C.ar      12 UNK        -0.0862 
     13 C13        30.1365   -4.3447   -5.5002 C.ar      12 UNK        -0.0733 
     14 C14        30.0468   -5.1498   -4.3619 C.ar      12 UNK        -0.0832 
     15 C15        29.5322   -4.7968   -6.8255 C.3       12 UNK         0.0240 
     16 S16        27.7595   -5.2270   -6.7360 S.3       12 UNK        -0.2522 
     17 C17        27.0173   -3.8382   -5.8150 C.3       12 UNK        -0.0967 
     18 CA         26.6785   -2.6045   -6.6905 C.3       5 UNK         0.0660 
     19 N          25.4584   -1.9241   -6.2427 N.am      5 UNK        -0.4015 
     20 C          24.8170   -0.9932   -6.9660 C.2       4 UNK         0.4946 
     21 O          25.1763   -0.6286   -8.0859 O.2       4 UNK        -0.5353 
     22 CA         23.5887   -0.3290   -6.3261 C.3       4 UNK         0.0277 
     23 CB         22.3606   -1.2481   -6.4213 C.3       4 UNK        -0.1981 
     24 N          23.7955    0.0697   -4.9333 N.am      4 UNK        -0.4209 
     25 C          24.7128    0.9397   -4.4936 C.2       3 UNK         0.4942 
     26 O          25.5359    1.4861   -5.2259 O.2       3 UNK        -0.5208 
     27 CA         24.7335    1.2486   -2.9856 C.3       3 UNK         0.0250 
     28 CB         23.6546    2.2828   -2.6105 C.3       3 UNK        -0.1990 
     29 N          24.6756    0.0579   -2.1267 N.am      3 UNK        -0.4232 
     30 C          23.6803   -0.8322   -1.9780 C.2       2 UNK         0.4993 
     31 O          22.5825   -0.7205   -2.5273 O.2       2 UNK        -0.5286 
     32 CA         23.9641   -2.0743   -1.1054 C.3       2 UNK         0.0209 
     33 CB         23.1672   -3.3107   -1.5753 C.3       2 UNK        -0.1931 
     34 N          25.3911   -2.4058   -0.9826 N.am      2 UNK        -0.4546 
     35 C          26.2534   -2.6831   -1.9750 C.2       1 UNK         0.5154 
     36 O          25.9432   -2.7126   -3.1666 O.2       1 UNK        -0.5181 
     37 C          27.8592   -1.6182   -6.7598 C.2       5 UNK         0.5014 
     38 O          28.6044   -1.6278   -7.7400 O.2       5 UNK        -0.5248 
     39 N          27.9805   -0.7583   -5.7366 N.am      6 UNK        -0.4434 
     40 CA         29.0024    0.2845   -5.6466 C.3       6 UNK         0.0363 
     41 CB         28.9421    0.9628   -4.2702 C.3       6 UNK        -0.1936 
     42 C          28.9082    1.3162   -6.7785 C.2       6 UNK         0.5081 
     43 O          29.9395    1.6887   -7.3375 O.2       6 UNK        -0.5248 
     44 N          27.6795    1.7250   -7.1206 N.am      7 UNK        -0.4718 
     45 CA         27.3787    2.5930   -8.2581 C.3       7 UNK         0.0273 
     46 CB         25.9132    3.0504   -8.1838 C.3       7 UNK        -0.1935 
     47 C          27.6734    1.9209   -9.6088 C.2       7 UNK         0.5018 
     48 O          28.2634    2.5631  -10.4776 O.2       7 UNK        -0.5186 
     49 N          27.2776    0.6472   -9.7578 N.am      8 UNK        -0.4240 
     50 CA         27.4939   -0.1535  -10.9669 C.3       8 UNK         0.0235 
     51 CB         26.7075   -1.4710  -10.8709 C.3       8 UNK        -0.2000 
     52 C          28.9789   -0.4277  -11.2548 C.2       8 UNK         0.4941 
     53 O          29.4099   -0.2720  -12.3981 O.2       8 UNK        -0.5273 
     54 N          29.7349   -0.8186  -10.2198 N.am      9 UNK        -0.4262 
     55 CA         31.1760   -1.0744  -10.3050 C.3       9 UNK         0.0264 
     56 CB         31.5970   -1.9612   -9.1260 C.3       9 UNK        -0.1955 
     57 C          32.0276    0.2069  -10.3238 C.2       9 UNK         0.5031 
     58 O          33.1887    0.1374  -10.7296 O.2       9 UNK        -0.5390 
     59 N          31.4511    1.3303   -9.8711 N.am      10 UNK        -0.4204 
     60 CA         32.0781    2.6381   -9.6605 C.3       10 UNK         0.0237 
     61 CB         32.5583    3.2557  -10.9918 C.3       10 UNK        -0.1985 
     62 C          33.1735    2.5692   -8.5799 C.2       10 UNK         0.4970 
     63 O          34.3198    2.9462   -8.8321 O.2       10 UNK        -0.4914 
     64 N          32.7918    2.0780   -7.3926 N.am      11 UNK        -0.4285 
     65 CA         33.6649    1.9748   -6.2091 C.3       11 UNK         0.1007 
     66 C          34.0927    3.3436   -5.6004 C.2       11 UNK         0.5703 
     67 N          33.4105    4.4457   -5.8912 N.am      11 UNK        -0.7361 
     68 O          35.0656    3.4045   -4.8523 O.2       11 UNK        -0.4986 
     69 C69        33.0543    1.0709   -5.1054 C.3       12 UNK        -0.0947 
     70 S70        32.7823   -0.6523   -5.6295 S.3       12 UNK        -0.2240 
     71 C71        32.0723   -1.3276   -4.0859 C.3       12 UNK         0.0194 
     72 H72        29.4330    0.7189    0.4777 H         1 UNK         0.0906 
     73 H73        27.8843    0.5878    1.3152 H         1 UNK         0.0906 
     74 H74        29.0981   -0.6810    1.4990 H         1 UNK         0.0906 
     75 H75        28.6221   -2.4985    0.2981 H         1 UNK         0.3140 
     76 H76        28.3404   -2.6379   -2.4195 H         1 UNK         0.1085 
     77 H77        27.2400   -4.7498   -0.4928 H         1 UNK         0.0836 
     78 H78        27.8115   -5.0099   -2.1181 H         1 UNK         0.0836 
     79 H79        31.4654   -5.8903   -1.5778 H         1 UNK         0.0731 
     80 H80        29.9313   -6.5193   -2.1265 H         1 UNK         0.0731 
     81 H81        31.6972   -3.1753   -2.1510 H         1 UNK         0.1312 
     82 H82        30.8425   -2.4881   -6.2954 H         1 UNK         0.1406 
     83 H83        29.5335   -6.1002   -4.4217 H         1 UNK         0.1631 
     84 H84        30.0833   -5.6680   -7.1817 H         1 UNK         0.0717 
     85 H85        29.6582   -4.0310   -7.5898 H         1 UNK         0.0717 
     86 H86        27.6347   -3.5771   -4.9545 H         1 UNK         0.0934 
     87 H87        26.0996   -4.2432   -5.3853 H         1 UNK         0.0934 
     88 H88        26.4836   -2.9498   -7.7082 H         1 UNK         0.0739 
     89 H89        25.1315   -2.1440   -5.3102 H         1 UNK         0.3093 
     90 H90        23.3782    0.5795   -6.8944 H         1 UNK         0.0818 
     91 H91        21.4601   -0.7425   -6.0719 H         1 UNK         0.0819 
     92 H92        22.1796   -1.5532   -7.4530 H         1 UNK         0.0819 
     93 H93        22.4855   -2.1552   -5.8284 H         1 UNK         0.0819 
     94 H94        23.1672   -0.3218   -4.2341 H         1 UNK         0.3041 
     95 H95        25.7036    1.7034   -2.7782 H         1 UNK         0.0784 
     96 H96        23.7803    3.1993   -3.1885 H         1 UNK         0.0793 
     97 H97        22.6465    1.9157   -2.8041 H         1 UNK         0.0793 
     98 H98        23.7162    2.5536   -1.5565 H         1 UNK         0.0793 
     99 H99        25.5602   -0.1540   -1.6726 H         1 UNK         0.3024 
    100 H100       23.6177   -1.8171   -0.1031 H         1 UNK         0.1171 
    101 H101       23.3682   -4.1760   -0.9437 H         1 UNK         0.0786 
    102 H102       23.4102   -3.5820   -2.6032 H         1 UNK         0.0786 
    103 H103       22.0930   -3.1260   -1.5337 H         1 UNK         0.0786 
    104 H104       25.7694   -2.3715   -0.0456 H         1 UNK         0.2977 
    105 H105       27.3039   -0.7988   -4.9885 H         1 UNK         0.3127 
    106 H106       29.9688   -0.2063   -5.7450 H         1 UNK         0.0770 
    107 H107       27.9817    1.4475   -4.0957 H         1 UNK         0.0814 
    108 H108       29.7128    1.7285   -4.1773 H         1 UNK         0.0814 
    109 H109       29.1019    0.2431   -3.4680 H         1 UNK         0.0814 
    110 H110       26.8901    1.4254   -6.5523 H         1 UNK         0.2983 
    111 H111       28.0165    3.4764   -8.1819 H         1 UNK         0.0947 
    112 H112       25.6665    3.7114   -9.0157 H         1 UNK         0.0806 
    113 H113       25.7172    3.5997   -7.2627 H         1 UNK         0.0806 
    114 H114       25.2239    2.2059   -8.2196 H         1 UNK         0.0806 
    115 H115       26.7555    0.2052   -9.0062 H         1 UNK         0.3000 
    116 H116       27.0963    0.4143  -11.8109 H         1 UNK         0.0850 
    117 H117       26.8454   -2.0755  -11.7682 H         1 UNK         0.0810 
    118 H118       25.6382   -1.2867  -10.7657 H         1 UNK         0.0810 
    119 H119       27.0277   -2.0718  -10.0192 H         1 UNK         0.0810 
    120 H120       29.2911   -0.9809   -9.3156 H         1 UNK         0.3040 
    121 H121       31.3793   -1.6187  -11.2296 H         1 UNK         0.0766 
    122 H122       32.6609   -2.1982   -9.1688 H         1 UNK         0.0812 
    123 H123       31.4128   -1.4565   -8.1787 H         1 UNK         0.0812 
    124 H124       31.0527   -2.9046   -9.1241 H         1 UNK         0.0812 
    125 H125       30.5083    1.2516   -9.5106 H         1 UNK         0.3205 
    126 H126       31.2959    3.2882   -9.2652 H         1 UNK         0.0754 
    127 H127       32.9189    4.2736  -10.8392 H         1 UNK         0.0769 
    128 H128       31.7475    3.3042  -11.7188 H         1 UNK         0.0769 
    129 H129       33.3750    2.6872  -11.4374 H         1 UNK         0.0769 
    130 H130       31.8181    1.8112   -7.2690 H         1 UNK         0.2981 
    131 H131       34.5892    1.4989   -6.5422 H         1 UNK         0.0541 
    132 H132       32.6075    4.4054   -6.4973 H         1 UNK         0.3459 
    133 H133       33.7009    5.3249   -5.4935 H         1 UNK         0.3459 
    134 H134       32.1038    1.4860   -4.7666 H         1 UNK         0.0612 
    135 H135       33.7066    1.0409   -4.2303 H         1 UNK         0.0612 
    136 H136       32.8770   -1.3979   -3.3525 H         1 UNK         0.0624 
    137 H137       31.3508   -0.6180   -3.6822 H         1 UNK         0.0624 
@<TRIPOS>BOND
     1    1    2 1    
     2    1   72 1    
     3    1   73 1    
     4    1   74 1    
     5    2    3 2    
     6    2    4 am   BACKBONE|DICT|INTERRES
     7    4    5 1    
     8    4   75 1    
     9    5    6 1    
    10    5   35 1    
    11    5   76 1    
    12    6    7 1    
    13    6   77 1    
    14    6   78 1    
    15    7    8 1    
    16    8    9 1    
    17    8   79 1    
    18    8   80 1    
    19    9   10 ar   
    20    9   14 ar   
    21   10   11 ar   
    22   10   81 1    
    23   11   12 ar   
    24   11   71 1    
    25   12   13 ar   
    26   12   82 1    
    27   13   14 ar   
    28   13   15 1    
    29   14   83 1    
    30   15   16 1    
    31   15   84 1    
    32   15   85 1    
    33   16   17 1    
    34   17   18 1    
    35   17   86 1    
    36   17   87 1    
    37   18   19 1    
    38   18   37 1    
    39   18   88 1    
    40   19   20 am   BACKBONE|DICT|INTERRES
    41   19   89 1    
    42   20   21 2    
    43   20   22 1    
    44   22   23 1    
    45   22   24 1    
    46   22   90 1    
    47   23   91 1    
    48   23   92 1    
    49   23   93 1    
    50   24   25 am   BACKBONE|DICT|INTERRES
    51   24   94 1    
    52   25   26 2    
    53   25   27 1    
    54   27   28 1    
    55   27   29 1    
    56   27   95 1    
    57   28   96 1    
    58   28   97 1    
    59   28   98 1    
    60   29   30 am   BACKBONE|DICT|INTERRES
    61   29   99 1    
    62   30   31 2    
    63   30   32 1    
    64   32   33 1    
    65   32   34 1    
    66   32  100 1    
    67   33  101 1    
    68   33  102 1    
    69   33  103 1    
    70   34   35 am   BACKBONE|DICT|INTERRES
    71   34  104 1    
    72   35   36 2    
    73   37   38 2    
    74   37   39 am   BACKBONE|DICT|INTERRES
    75   39   40 1    
    76   39  105 1    
    77   40   41 1    
    78   40   42 1    
    79   40  106 1    
    80   41  107 1    
    81   41  108 1    
    82   41  109 1    
    83   42   43 2    
    84   42   44 am   BACKBONE|DICT|INTERRES
    85   44   45 1    
    86   44  110 1    
    87   45   46 1    
    88   45   47 1    
    89   45  111 1    
    90   46  112 1    
    91   46  113 1    
    92   46  114 1    
    93   47   48 2    
    94   47   49 am   BACKBONE|DICT|INTERRES
    95   49   50 1    
    96   49  115 1    
    97   50   51 1    
    98   50   52 1    
    99   50  116 1    
   100   51  117 1    
   101   51  118 1    
   102   51  119 1    
   103   52   53 2    
   104   52   54 am   BACKBONE|DICT|INTERRES
   105   54   55 1    
   106   54  120 1    
   107   55   56 1    
   108   55   57 1    
   109   55  121 1    
   110   56  122 1    
   111   56  123 1    
   112   56  124 1    
   113   57   58 2    
   114   57   59 am   BACKBONE|DICT|INTERRES
   115   59   60 1    
   116   59  125 1    
   117   60   61 1    
   118   60   62 1    
   119   60  126 1    
   120   61  127 1    
   121   61  128 1    
   122   61  129 1    
   123   62   63 2    
   124   62   64 am   BACKBONE|DICT|INTERRES
   125   64   65 1    
   126   64  130 1    
   127   65   66 1    
   128   65   69 1    
   129   65  131 1    
   130   66   67 am   BACKBONE|DICT|INTERRES
   131   66   68 2    
   132   67  132 1    
   133   67  133 1    
   134   69   70 1    
   135   69  134 1    
   136   69  135 1    
   137   70   71 1    
   138   71  136 1    
   139   71  137 1    
@<TRIPOS>SUBSTRUCTURE
     1 UNK         1 GROUP             0       ****    0 ROOT    
