@<TRIPOS>MOLECULE
3R137
137   139    1
SMALL
USER_CHARGES


@<TRIPOS>ATOM
      1 CA         29.1622   -1.3053    3.4658 C.3       0 UNK        -0.2020 
      2 C          29.1827   -0.9028    1.9985 C.2       0 UNK         0.4855 
      3 O          29.4184    0.2660    1.6904 O.2       0 UNK        -0.5197 
      4 N          28.9487   -1.8647    1.0985 N.am      1 UNK        -0.4892 
      5 CA         28.8676   -1.6738   -0.3516 C.3       1 UNK         0.0835 
      6 C6         29.6069   -2.8072   -1.1162 C.3       12 UNK        -0.0855 
      7 S7         29.0365   -4.5064   -0.7329 S.3       12 UNK        -0.2931 
      8 C8         30.3820   -5.5156   -1.4357 C.3       12 UNK         0.0378 
      9 C9         30.6571   -5.1541   -2.8877 C.ar      12 UNK        -0.0802 
     10 C10        31.8064   -4.4330   -3.2232 C.ar      12 UNK        -0.0944 
     11 C11        32.0354   -4.0381   -4.5432 C.ar      12 UNK        -0.0787 
     12 C12        31.1101   -4.3778   -5.5350 C.ar      12 UNK        -0.0862 
     13 C13        29.9610   -5.1082   -5.2129 C.ar      12 UNK        -0.0733 
     14 C14        29.7458   -5.5033   -3.8887 C.ar      12 UNK        -0.0832 
     15 C15        28.9437   -5.4588   -6.2911 C.3       12 UNK         0.0240 
     16 S16        27.3624   -4.5862   -6.0468 S.3       12 UNK        -0.2522 
     17 C17        27.8631   -2.8410   -6.2245 C.3       12 UNK        -0.0967 
     18 CA         26.9640   -2.0716   -7.2216 C.3       5 UNK         0.0660 
     19 N          25.5605   -2.0223   -6.8117 N.am      5 UNK        -0.4015 
     20 C          24.5396   -1.7623   -7.6409 C.2       4 UNK         0.4946 
     21 O          24.6588   -1.6321   -8.8596 O.2       4 UNK        -0.5353 
     22 CA         23.1482   -1.5967   -7.0039 C.3       4 UNK         0.0277 
     23 CB         22.4245   -2.9510   -6.9332 C.3       4 UNK        -0.1981 
     24 N          23.1891   -0.9952   -5.6680 N.am      4 UNK        -0.4209 
     25 C          23.6134    0.2496   -5.4039 C.2       3 UNK         0.4942 
     26 O          23.9824    1.0454   -6.2650 O.2       3 UNK        -0.5208 
     27 CA         23.6901    0.6570   -3.9235 C.3       3 UNK         0.0250 
     28 CB         22.3432    1.2253   -3.4493 C.3       3 UNK        -0.1990 
     29 N          24.1033   -0.4384   -3.0402 N.am      3 UNK        -0.4232 
     30 C          25.2763   -1.0819   -3.1190 C.2       2 UNK         0.4993 
     31 O          26.1404   -0.8397   -3.9673 O.2       2 UNK        -0.5286 
     32 CA         25.4806   -2.2413   -2.1342 C.3       2 UNK         0.0209 
     33 CB         25.1316   -3.5783   -2.8073 C.3       2 UNK        -0.1931 
     34 N          26.8574   -2.2998   -1.6467 N.am      2 UNK        -0.4546 
     35 C          27.3924   -1.4512   -0.7598 C.2       1 UNK         0.5154 
     36 O          26.7562   -0.5242   -0.2522 O.2       1 UNK        -0.5181 
     37 C          27.4857   -0.6434   -7.4429 C.2       5 UNK         0.5014 
     38 O          28.0002   -0.3532   -8.5224 O.2       5 UNK        -0.5248 
     39 N          27.3020    0.2301   -6.4394 N.am      6 UNK        -0.4434 
     40 CA         27.7551    1.6258   -6.4461 C.3       6 UNK         0.0363 
     41 CB         27.4145    2.2825   -5.1002 C.3       6 UNK        -0.1936 
     42 C          27.2059    2.4650   -7.6143 C.2       6 UNK         0.5081 
     43 O          27.9248    3.3210   -8.1297 O.2       6 UNK        -0.5248 
     44 N          25.9630    2.1860   -8.0319 N.am      7 UNK        -0.4718 
     45 CA         25.3189    2.7782   -9.2066 C.3       7 UNK         0.0273 
     46 CB         23.8318    2.3895   -9.2206 C.3       7 UNK        -0.1935 
     47 C          25.9823    2.3933  -10.5419 C.2       7 UNK         0.5018 
     48 O          25.8989    3.1757  -11.4898 O.2       7 UNK        -0.5186 
     49 N          26.6216    1.2156  -10.6038 N.am      8 UNK        -0.4240 
     50 CA         27.4112    0.7748  -11.7536 C.3       8 UNK         0.0235 
     51 CB         27.4358   -0.7617  -11.8299 C.3       8 UNK        -0.2000 
     52 C          28.8274    1.3629  -11.6816 C.2       8 UNK         0.4941 
     53 O          29.2613    2.0023  -12.6410 O.2       8 UNK        -0.5273 
     54 N          29.5039    1.1715  -10.5415 N.am      9 UNK        -0.4262 
     55 CA         30.8111    1.7449  -10.2297 C.3       9 UNK         0.0264 
     56 CB         31.9264    1.0619  -11.0469 C.3       9 UNK        -0.1955 
     57 C          31.0741    1.5741   -8.7326 C.2       9 UNK         0.5031 
     58 O          30.8775    0.4775   -8.2060 O.2       9 UNK        -0.5390 
     59 N          31.5763    2.6265   -8.0751 N.am      10 UNK        -0.4204 
     60 CA         31.9160    2.6498   -6.6461 C.3       10 UNK         0.0237 
     61 CB         31.9185    4.1109   -6.1584 C.3       10 UNK        -0.1985 
     62 C          33.2321    1.9072   -6.3248 C.2       10 UNK         0.4970 
     63 O          34.1107    2.4660   -5.6659 O.2       10 UNK        -0.4914 
     64 N          33.3390    0.6638   -6.8081 N.am      11 UNK        -0.4285 
     65 CA         34.4526   -0.2813   -6.6148 C.3       11 UNK         0.1007 
     66 C          35.8144    0.1593   -7.2351 C.2       11 UNK         0.5703 
     67 N          35.8450    1.1251   -8.1459 N.am      11 UNK        -0.7361 
     68 O          36.8586   -0.4059   -6.9175 O.2       11 UNK        -0.4986 
     69 C69        34.5840   -0.7632   -5.1408 C.3       12 UNK        -0.0947 
     70 S70        33.0309   -1.4719   -4.4965 S.3       12 UNK        -0.2240 
     71 C71        33.2751   -3.2298   -4.8886 C.3       12 UNK         0.0194 
     72 H72        30.1238   -1.0854    3.9289 H         1 UNK         0.0906 
     73 H73        28.3923   -0.7464    3.9971 H         1 UNK         0.0906 
     74 H74        28.9595   -2.3684    3.5954 H         1 UNK         0.0906 
     75 H75        28.7476   -2.8046    1.4120 H         1 UNK         0.3140 
     76 H76        29.3763   -0.7442   -0.6173 H         1 UNK         0.1085 
     77 H77        29.5481   -2.6408   -2.1940 H         1 UNK         0.0836 
     78 H78        30.6702   -2.7515   -0.8768 H         1 UNK         0.0836 
     79 H79        31.2788   -5.3875   -0.8273 H         1 UNK         0.0731 
     80 H80        30.1122   -6.5704   -1.3661 H         1 UNK         0.0731 
     81 H81        32.5125   -4.1531   -2.4531 H         1 UNK         0.1312 
     82 H82        31.2805   -4.0631   -6.5557 H         1 UNK         0.1406 
     83 H83        28.8500   -6.0527   -3.6314 H         1 UNK         0.1631 
     84 H84        28.7599   -6.5339   -6.2739 H         1 UNK         0.0717 
     85 H85        29.3300   -5.2296   -7.2856 H         1 UNK         0.0717 
     86 H86        27.8496   -2.3807   -5.2352 H         1 UNK         0.0934 
     87 H87        28.9013   -2.7979   -6.5587 H         1 UNK         0.0934 
     88 H88        27.0195   -2.5890   -8.1824 H         1 UNK         0.0739 
     89 H89        25.3851   -2.0770   -5.8189 H         1 UNK         0.3093 
     90 H90        22.5705   -0.9314   -7.6495 H         1 UNK         0.0818 
     91 H91        21.4050   -2.8384   -6.5639 H         1 UNK         0.0819 
     92 H92        22.3597   -3.4094   -7.9212 H         1 UNK         0.0819 
     93 H93        22.9437   -3.6551   -6.2815 H         1 UNK         0.0819 
     94 H94        22.8936   -1.5739   -4.8956 H         1 UNK         0.3041 
     95 H95        24.4393    1.4461   -3.8385 H         1 UNK         0.0784 
     96 H96        22.0268    2.0558   -4.0824 H         1 UNK         0.0793 
     97 H97        21.5525    0.4746   -3.4776 H         1 UNK         0.0793 
     98 H98        22.4096    1.6061   -2.4299 H         1 UNK         0.0793 
     99 H99        23.4465   -0.7068   -2.3210 H         1 UNK         0.3024 
    100 H100       24.8212   -2.0998   -1.2745 H         1 UNK         0.1171 
    101 H101       24.1002   -3.5846   -3.1622 H         1 UNK         0.0786 
    102 H102       25.2383   -4.4115   -2.1122 H         1 UNK         0.0786 
    103 H103       25.7739   -3.7766   -3.6653 H         1 UNK         0.0786 
    104 H104       27.4387   -3.0459   -2.0034 H         1 UNK         0.2977 
    105 H105       26.8588   -0.0988   -5.5840 H         1 UNK         0.3127 
    106 H106       28.8408    1.6032   -6.5480 H         1 UNK         0.0770 
    107 H107       26.3371    2.3459   -4.9485 H         1 UNK         0.0814 
    108 H108       27.8114    3.2973   -5.0511 H         1 UNK         0.0814 
    109 H109       27.8400    1.7256   -4.2649 H         1 UNK         0.0814 
    110 H110       25.4032    1.5332   -7.4887 H         1 UNK         0.2983 
    111 H111       25.3888    3.8640   -9.1117 H         1 UNK         0.0947 
    112 H112       23.3227    2.8123  -10.0878 H         1 UNK         0.0806 
    113 H113       23.3178    2.7588   -8.3331 H         1 UNK         0.0806 
    114 H114       23.7001    1.3070   -9.2575 H         1 UNK         0.0806 
    115 H115       26.7000    0.6564   -9.7611 H         1 UNK         0.3000 
    116 H116       26.9410    1.1399  -12.6695 H         1 UNK         0.0850 
    117 H117       27.9718   -1.0954  -12.7192 H         1 UNK         0.0810 
    118 H118       26.4265   -1.1701  -11.8864 H         1 UNK         0.0810 
    119 H119       27.9281   -1.2126  -10.9686 H         1 UNK         0.0810 
    120 H120       29.0778    0.6316   -9.7877 H         1 UNK         0.3040 
    121 H121       30.7864    2.8103  -10.4680 H         1 UNK         0.0766 
    122 H122       32.9074    1.4534  -10.7745 H         1 UNK         0.0812 
    123 H123       31.8027    1.2272  -12.1169 H         1 UNK         0.0812 
    124 H124       31.9453   -0.0151  -10.8753 H         1 UNK         0.0812 
    125 H125       31.7482    3.4799   -8.5876 H         1 UNK         0.3205 
    126 H126       31.1299    2.1271   -6.0978 H         1 UNK         0.0754 
    127 H127       32.1056    4.1660   -5.0851 H         1 UNK         0.0769 
    128 H128       30.9561    4.5903   -6.3402 H         1 UNK         0.0769 
    129 H129       32.6889    4.7017   -6.6556 H         1 UNK         0.0769 
    130 H130       32.5442    0.3106   -7.3353 H         1 UNK         0.2981 
    131 H131       34.1740   -1.1549   -7.2047 H         1 UNK         0.0541 
    132 H132       34.9984    1.5968   -8.4180 H         1 UNK         0.3459 
    133 H133       36.7281    1.3944   -8.5499 H         1 UNK         0.3459 
    134 H134       34.8753    0.0658   -4.4943 H         1 UNK         0.0612 
    135 H135       35.3716   -1.5123   -5.0429 H         1 UNK         0.0612 
    136 H136       34.1339   -3.6106   -4.3337 H         1 UNK         0.0624 
    137 H137       33.5152   -3.3359   -5.9476 H         1 UNK         0.0624 
@<TRIPOS>BOND
     1    1    2 1    
     2    1   72 1    
     3    1   73 1    
     4    1   74 1    
     5    2    3 2    
     6    2    4 am   BACKBONE|DICT|INTERRES
     7    4    5 1    
     8    4   75 1    
     9    5    6 1    
    10    5   35 1    
    11    5   76 1    
    12    6    7 1    
    13    6   77 1    
    14    6   78 1    
    15    7    8 1    
    16    8    9 1    
    17    8   79 1    
    18    8   80 1    
    19    9   10 ar   
    20    9   14 ar   
    21   10   11 ar   
    22   10   81 1    
    23   11   12 ar   
    24   11   71 1    
    25   12   13 ar   
    26   12   82 1    
    27   13   14 ar   
    28   13   15 1    
    29   14   83 1    
    30   15   16 1    
    31   15   84 1    
    32   15   85 1    
    33   16   17 1    
    34   17   18 1    
    35   17   86 1    
    36   17   87 1    
    37   18   19 1    
    38   18   37 1    
    39   18   88 1    
    40   19   20 am   BACKBONE|DICT|INTERRES
    41   19   89 1    
    42   20   21 2    
    43   20   22 1    
    44   22   23 1    
    45   22   24 1    
    46   22   90 1    
    47   23   91 1    
    48   23   92 1    
    49   23   93 1    
    50   24   25 am   BACKBONE|DICT|INTERRES
    51   24   94 1    
    52   25   26 2    
    53   25   27 1    
    54   27   28 1    
    55   27   29 1    
    56   27   95 1    
    57   28   96 1    
    58   28   97 1    
    59   28   98 1    
    60   29   30 am   BACKBONE|DICT|INTERRES
    61   29   99 1    
    62   30   31 2    
    63   30   32 1    
    64   32   33 1    
    65   32   34 1    
    66   32  100 1    
    67   33  101 1    
    68   33  102 1    
    69   33  103 1    
    70   34   35 am   BACKBONE|DICT|INTERRES
    71   34  104 1    
    72   35   36 2    
    73   37   38 2    
    74   37   39 am   BACKBONE|DICT|INTERRES
    75   39   40 1    
    76   39  105 1    
    77   40   41 1    
    78   40   42 1    
    79   40  106 1    
    80   41  107 1    
    81   41  108 1    
    82   41  109 1    
    83   42   43 2    
    84   42   44 am   BACKBONE|DICT|INTERRES
    85   44   45 1    
    86   44  110 1    
    87   45   46 1    
    88   45   47 1    
    89   45  111 1    
    90   46  112 1    
    91   46  113 1    
    92   46  114 1    
    93   47   48 2    
    94   47   49 am   BACKBONE|DICT|INTERRES
    95   49   50 1    
    96   49  115 1    
    97   50   51 1    
    98   50   52 1    
    99   50  116 1    
   100   51  117 1    
   101   51  118 1    
   102   51  119 1    
   103   52   53 2    
   104   52   54 am   BACKBONE|DICT|INTERRES
   105   54   55 1    
   106   54  120 1    
   107   55   56 1    
   108   55   57 1    
   109   55  121 1    
   110   56  122 1    
   111   56  123 1    
   112   56  124 1    
   113   57   58 2    
   114   57   59 am   BACKBONE|DICT|INTERRES
   115   59   60 1    
   116   59  125 1    
   117   60   61 1    
   118   60   62 1    
   119   60  126 1    
   120   61  127 1    
   121   61  128 1    
   122   61  129 1    
   123   62   63 2    
   124   62   64 am   BACKBONE|DICT|INTERRES
   125   64   65 1    
   126   64  130 1    
   127   65   66 1    
   128   65   69 1    
   129   65  131 1    
   130   66   67 am   BACKBONE|DICT|INTERRES
   131   66   68 2    
   132   67  132 1    
   133   67  133 1    
   134   69   70 1    
   135   69  134 1    
   136   69  135 1    
   137   70   71 1    
   138   71  136 1    
   139   71  137 1    
@<TRIPOS>SUBSTRUCTURE
     1 UNK         1 GROUP             0       ****    0 ROOT    
