@<TRIPOS>MOLECULE
3R137
137   139    1
SMALL
USER_CHARGES


@<TRIPOS>ATOM
      1 CA         28.7327   -5.7216   -7.0051 C.3       0 UNK        -0.2020 
      2 C          27.9695   -5.7786   -5.6915 C.2       0 UNK         0.4855 
      3 O          27.4652   -6.8366   -5.3160 O.2       0 UNK        -0.5197 
      4 N          27.8660   -4.6365   -4.9995 N.am      1 UNK        -0.4892 
      5 CA         27.1446   -4.4885   -3.7262 C.3       1 UNK         0.0835 
      6 C6         27.7898   -3.3873   -2.8415 C.3       12 UNK        -0.0855 
      7 S7         29.1156   -4.0726   -1.7877 S.3       12 UNK        -0.2931 
      8 C8         30.6412   -3.5167   -2.6280 C.3       12 UNK         0.0378 
      9 C9         30.9647   -2.0217   -2.5414 C.ar      12 UNK        -0.0802 
     10 C10        32.0685   -1.5435   -3.2532 C.ar      12 UNK        -0.0944 
     11 C11        32.4043   -0.1854   -3.2433 C.ar      12 UNK        -0.0787 
     12 C12        31.6308    0.7016   -2.4887 C.ar      12 UNK        -0.0862 
     13 C13        30.5232    0.2477   -1.7646 C.ar      12 UNK        -0.0733 
     14 C14        30.2119   -1.1174   -1.7820 C.ar      12 UNK        -0.0832 
     15 C15        29.6988    1.2398   -0.9443 C.3       12 UNK         0.0240 
     16 S16        27.9174    0.8386   -0.8498 S.3       12 UNK        -0.2522 
     17 C17        27.2321    1.5640   -2.3754 C.3       12 UNK        -0.0967 
     18 CA         27.2053    0.5684   -3.5813 C.3       5 UNK         0.0660 
     19 N          25.9219    0.5982   -4.2868 N.am      5 UNK        -0.4015 
     20 C          25.4276    1.6027   -5.0261 C.2       4 UNK         0.4946 
     21 O          26.0742    2.6069   -5.3297 O.2       4 UNK        -0.5353 
     22 CA         23.9630    1.4814   -5.4976 C.3       4 UNK         0.0277 
     23 CB         23.8415    1.6011   -7.0262 C.3       4 UNK        -0.1981 
     24 N          23.2969    0.2520   -5.0494 N.am      4 UNK        -0.4209 
     25 C          22.8089    0.0433   -3.8201 C.2       3 UNK         0.4942 
     26 O          22.8785    0.8746   -2.9149 O.2       3 UNK        -0.5208 
     27 CA         22.1558   -1.3200   -3.5291 C.3       3 UNK         0.0250 
     28 CB         20.6754   -1.3204   -3.9581 C.3       3 UNK        -0.1990 
     29 N          22.8677   -2.4934   -4.0620 N.am      3 UNK        -0.4232 
     30 C          23.0613   -2.8654   -5.3344 C.2       2 UNK         0.4993 
     31 O          22.7527   -2.1729   -6.3060 O.2       2 UNK        -0.5286 
     32 CA         23.7251   -4.2389   -5.5464 C.3       2 UNK         0.0209 
     33 CB         23.5860   -4.7415   -6.9963 C.3       2 UNK        -0.1931 
     34 N          25.1423   -4.2542   -5.1710 N.am      2 UNK        -0.4546 
     35 C          25.6209   -4.2872   -3.9184 C.2       1 UNK         0.5154 
     36 O          24.8946   -4.1970   -2.9265 O.2       1 UNK        -0.5181 
     37 C          28.3734    0.6933   -4.5839 C.2       5 UNK         0.5014 
     38 O          28.5587   -0.2080   -5.4068 O.2       5 UNK        -0.5248 
     39 N          29.0981    1.8182   -4.5428 N.am      6 UNK        -0.4434 
     40 CA         30.2196    2.1465   -5.4194 C.3       6 UNK         0.0363 
     41 CB         30.8456    3.4668   -4.9455 C.3       6 UNK        -0.1936 
     42 C          29.8408    2.2346   -6.9055 C.2       6 UNK         0.5081 
     43 O          30.6755    1.9266   -7.7562 O.2       6 UNK        -0.5248 
     44 N          28.5934    2.6275   -7.1983 N.am      7 UNK        -0.4718 
     45 CA         28.0591    2.6820   -8.5598 C.3       7 UNK         0.0273 
     46 CB         26.9166    3.7068   -8.6190 C.3       7 UNK        -0.1935 
     47 C          27.5998    1.3066   -9.0745 C.2       7 UNK         0.5018 
     48 O          27.5404    1.1205  -10.2898 O.2       7 UNK        -0.5186 
     49 N          27.3022    0.3665   -8.1638 N.am      8 UNK        -0.4240 
     50 CA         26.9758   -1.0211   -8.5021 C.3       8 UNK         0.0235 
     51 CB         26.1492   -1.6749   -7.3809 C.3       8 UNK        -0.2000 
     52 C          28.2470   -1.8354   -8.7691 C.2       8 UNK         0.4941 
     53 O          28.3125   -2.5553   -9.7651 O.2       8 UNK        -0.5273 
     54 N          29.2304   -1.7066   -7.8688 N.am      9 UNK        -0.4262 
     55 CA         30.5102   -2.4155   -7.9367 C.3       9 UNK         0.0264 
     56 CB         31.0475   -2.5854   -6.5087 C.3       9 UNK        -0.1955 
     57 C          31.5472   -1.7725   -8.8808 C.2       9 UNK         0.5031 
     58 O          32.5694   -2.4068   -9.1457 O.2       9 UNK        -0.5390 
     59 N          31.2639   -0.5616   -9.3871 N.am      10 UNK        -0.4204 
     60 CA         32.0767    0.2392  -10.3141 C.3       10 UNK         0.0237 
     61 CB         32.2214   -0.4636  -11.6814 C.3       10 UNK        -0.1985 
     62 C          33.4242    0.6514   -9.6921 C.2       10 UNK         0.4970 
     63 O          34.4888    0.3416  -10.2313 O.2       10 UNK        -0.4914 
     64 N          33.3320    1.3389   -8.5525 N.am      11 UNK        -0.4285 
     65 CA         34.4495    1.7562   -7.6908 C.3       11 UNK         0.1007 
     66 C          34.2664    3.1833   -7.1017 C.2       11 UNK         0.5703 
     67 N          33.3501    3.9956   -7.6170 N.am      11 UNK        -0.7361 
     68 O          34.9846    3.5799   -6.1872 O.2       11 UNK        -0.4986 
     69 C69        34.8206    0.6699   -6.6364 C.3       12 UNK        -0.0947 
     70 S70        33.3716   -0.0765   -5.8203 S.3       12 UNK        -0.2240 
     71 C71        33.5909    0.3194   -4.0602 C.3       12 UNK         0.0194 
     72 H72        29.8060   -5.7734   -6.8236 H         1 UNK         0.0906 
     73 H73        28.4556   -6.5585   -7.6458 H         1 UNK         0.0906 
     74 H74        28.5126   -4.8024   -7.5467 H         1 UNK         0.0906 
     75 H75        28.3023   -3.7982   -5.3551 H         1 UNK         0.3140 
     76 H76        27.2133   -5.4350   -3.1842 H         1 UNK         0.1085 
     77 H77        27.0651   -2.9348   -2.1617 H         1 UNK         0.0836 
     78 H78        28.1767   -2.5692   -3.4507 H         1 UNK         0.0836 
     79 H79        31.4773   -4.0689   -2.1969 H         1 UNK         0.0731 
     80 H80        30.5859   -3.8171   -3.6740 H         1 UNK         0.0731 
     81 H81        32.6636   -2.2307   -3.8394 H         1 UNK         0.1312 
     82 H82        31.8901    1.7504   -2.4678 H         1 UNK         0.1406 
     83 H83        29.3731   -1.4691   -1.2007 H         1 UNK         0.1631 
     84 H84        29.8174    2.2537   -1.3294 H         1 UNK         0.0717 
     85 H85        30.0993    1.2493    0.0701 H         1 UNK         0.0717 
     86 H86        26.2071    1.8294   -2.1092 H         1 UNK         0.0934 
     87 H87        27.6952    2.5275   -2.5858 H         1 UNK         0.0934 
     88 H88        27.2717   -0.4430   -3.1823 H         1 UNK         0.0739 
     89 H89        25.3173   -0.1926   -4.1252 H         1 UNK         0.3093 
     90 H90        23.4263    2.3267   -5.0616 H         1 UNK         0.0818 
     91 H91        22.8224    1.4088   -7.3621 H         1 UNK         0.0819 
     92 H92        24.0943    2.6092   -7.3524 H         1 UNK         0.0819 
     93 H93        24.5027    0.9142   -7.5511 H         1 UNK         0.0819 
     94 H94        23.1734   -0.4976   -5.7295 H         1 UNK         0.3041 
     95 H95        22.1762   -1.4422   -2.4447 H         1 UNK         0.0784 
     96 H96        20.1322   -0.5023   -3.4829 H         1 UNK         0.0793 
     97 H97        20.5615   -1.2001   -5.0360 H         1 UNK         0.0793 
     98 H98        20.1797   -2.2475   -3.6703 H         1 UNK         0.0793 
     99 H99        23.2747   -3.1041   -3.3584 H         1 UNK         0.3024 
    100 H100       23.1946   -4.9495   -4.9077 H         1 UNK         0.1171 
    101 H101       24.0010   -5.7430   -7.1114 H         1 UNK         0.0786 
    102 H102       24.0865   -4.0863   -7.7090 H         1 UNK         0.0786 
    103 H103       22.5365   -4.7931   -7.2894 H         1 UNK         0.0786 
    104 H104       25.8078   -4.3403   -5.9238 H         1 UNK         0.2977 
    105 H105       28.8406    2.5240   -3.8705 H         1 UNK         0.3127 
    106 H106       30.9548    1.3495   -5.3159 H         1 UNK         0.0770 
    107 H107       30.1663    4.3089   -5.0841 H         1 UNK         0.0814 
    108 H108       31.7543    3.6875   -5.5014 H         1 UNK         0.0814 
    109 H109       31.1205    3.4302   -3.8924 H         1 UNK         0.0814 
    110 H110       27.9494    2.8380   -6.4429 H         1 UNK         0.2983 
    111 H111       28.8472    3.0266   -9.2336 H         1 UNK         0.0947 
    112 H112       26.4721    3.7448   -9.6145 H         1 UNK         0.0806 
    113 H113       27.2753    4.7095   -8.3865 H         1 UNK         0.0806 
    114 H114       26.1234    3.4673   -7.9135 H         1 UNK         0.0806 
    115 H115       27.4383    0.5820   -7.1850 H         1 UNK         0.3000 
    116 H116       26.3730   -1.0353   -9.4131 H         1 UNK         0.0850 
    117 H117       25.9893   -2.7310   -7.5959 H         1 UNK         0.0810 
    118 H118       25.1647   -1.2210   -7.2908 H         1 UNK         0.0810 
    119 H119       26.6377   -1.6144   -6.4094 H         1 UNK         0.0810 
    120 H120       29.0781   -1.1122   -7.0568 H         1 UNK         0.3040 
    121 H121       30.3350   -3.4158   -8.3373 H         1 UNK         0.0766 
    122 H122       32.0802   -2.9369   -6.5033 H         1 UNK         0.0812 
    123 H123       30.4572   -3.3144   -5.9576 H         1 UNK         0.0812 
    124 H124       31.0099   -1.6480   -5.9546 H         1 UNK         0.0812 
    125 H125       30.4310   -0.1044   -9.0427 H         1 UNK         0.3205 
    126 H126       31.5216    1.1635  -10.4830 H         1 UNK         0.0754 
    127 H127       32.7341    0.1806  -12.3967 H         1 UNK         0.0769 
    128 H128       31.2473   -0.7082  -12.1051 H         1 UNK         0.0769 
    129 H129       32.7964   -1.3871  -11.6081 H         1 UNK         0.0769 
    130 H130       32.4033    1.5402   -8.1843 H         1 UNK         0.2981 
    131 H131       35.3259    1.8754   -8.3300 H         1 UNK         0.0541 
    132 H132       32.7626    3.6936   -8.3775 H         1 UNK         0.3459 
    133 H133       33.2555    4.9270   -7.2453 H         1 UNK         0.3459 
    134 H134       35.5211    1.0468   -5.8895 H         1 UNK         0.0612 
    135 H135       35.3458   -0.1423   -7.1407 H         1 UNK         0.0612 
    136 H136       34.5084   -0.1431   -3.6945 H         1 UNK         0.0624 
    137 H137       33.7101    1.3987   -3.9524 H         1 UNK         0.0624 
@<TRIPOS>BOND
     1    1    2 1    
     2    1   72 1    
     3    1   73 1    
     4    1   74 1    
     5    2    3 2    
     6    2    4 am   BACKBONE|DICT|INTERRES
     7    4    5 1    
     8    4   75 1    
     9    5    6 1    
    10    5   35 1    
    11    5   76 1    
    12    6    7 1    
    13    6   77 1    
    14    6   78 1    
    15    7    8 1    
    16    8    9 1    
    17    8   79 1    
    18    8   80 1    
    19    9   10 ar   
    20    9   14 ar   
    21   10   11 ar   
    22   10   81 1    
    23   11   12 ar   
    24   11   71 1    
    25   12   13 ar   
    26   12   82 1    
    27   13   14 ar   
    28   13   15 1    
    29   14   83 1    
    30   15   16 1    
    31   15   84 1    
    32   15   85 1    
    33   16   17 1    
    34   17   18 1    
    35   17   86 1    
    36   17   87 1    
    37   18   19 1    
    38   18   37 1    
    39   18   88 1    
    40   19   20 am   BACKBONE|DICT|INTERRES
    41   19   89 1    
    42   20   21 2    
    43   20   22 1    
    44   22   23 1    
    45   22   24 1    
    46   22   90 1    
    47   23   91 1    
    48   23   92 1    
    49   23   93 1    
    50   24   25 am   BACKBONE|DICT|INTERRES
    51   24   94 1    
    52   25   26 2    
    53   25   27 1    
    54   27   28 1    
    55   27   29 1    
    56   27   95 1    
    57   28   96 1    
    58   28   97 1    
    59   28   98 1    
    60   29   30 am   BACKBONE|DICT|INTERRES
    61   29   99 1    
    62   30   31 2    
    63   30   32 1    
    64   32   33 1    
    65   32   34 1    
    66   32  100 1    
    67   33  101 1    
    68   33  102 1    
    69   33  103 1    
    70   34   35 am   BACKBONE|DICT|INTERRES
    71   34  104 1    
    72   35   36 2    
    73   37   38 2    
    74   37   39 am   BACKBONE|DICT|INTERRES
    75   39   40 1    
    76   39  105 1    
    77   40   41 1    
    78   40   42 1    
    79   40  106 1    
    80   41  107 1    
    81   41  108 1    
    82   41  109 1    
    83   42   43 2    
    84   42   44 am   BACKBONE|DICT|INTERRES
    85   44   45 1    
    86   44  110 1    
    87   45   46 1    
    88   45   47 1    
    89   45  111 1    
    90   46  112 1    
    91   46  113 1    
    92   46  114 1    
    93   47   48 2    
    94   47   49 am   BACKBONE|DICT|INTERRES
    95   49   50 1    
    96   49  115 1    
    97   50   51 1    
    98   50   52 1    
    99   50  116 1    
   100   51  117 1    
   101   51  118 1    
   102   51  119 1    
   103   52   53 2    
   104   52   54 am   BACKBONE|DICT|INTERRES
   105   54   55 1    
   106   54  120 1    
   107   55   56 1    
   108   55   57 1    
   109   55  121 1    
   110   56  122 1    
   111   56  123 1    
   112   56  124 1    
   113   57   58 2    
   114   57   59 am   BACKBONE|DICT|INTERRES
   115   59   60 1    
   116   59  125 1    
   117   60   61 1    
   118   60   62 1    
   119   60  126 1    
   120   61  127 1    
   121   61  128 1    
   122   61  129 1    
   123   62   63 2    
   124   62   64 am   BACKBONE|DICT|INTERRES
   125   64   65 1    
   126   64  130 1    
   127   65   66 1    
   128   65   69 1    
   129   65  131 1    
   130   66   67 am   BACKBONE|DICT|INTERRES
   131   66   68 2    
   132   67  132 1    
   133   67  133 1    
   134   69   70 1    
   135   69  134 1    
   136   69  135 1    
   137   70   71 1    
   138   71  136 1    
   139   71  137 1    
@<TRIPOS>SUBSTRUCTURE
     1 UNK         1 GROUP             0       ****    0 ROOT    
