@<TRIPOS>MOLECULE
3R137
137   139    1
SMALL
USER_CHARGES


@<TRIPOS>ATOM
      1 CA         27.3943    0.4582    3.3145 C.3       0 UNK        -0.2020 
      2 C          27.3250   -0.3120    2.0039 C.2       0 UNK         0.4855 
      3 O          27.1019   -1.5218    2.0305 O.2       0 UNK        -0.5197 
      4 N          27.5088    0.3949    0.8769 N.am      1 UNK        -0.4892 
      5 CA         27.5075   -0.0834   -0.5165 C.3       1 UNK         0.0835 
      6 C6         28.8997   -0.5472   -1.0366 C.3       12 UNK        -0.0855 
      7 S7         29.8079   -1.8223   -0.0946 S.3       12 UNK        -0.2931 
      8 C8         29.6232   -3.3173   -1.1376 C.3       12 UNK         0.0378 
      9 C9         30.0295   -3.1796   -2.6096 C.ar      12 UNK        -0.0802 
     10 C10        30.9814   -2.2484   -3.0481 C.ar      12 UNK        -0.0944 
     11 C11        31.3096   -2.1488   -4.4042 C.ar      12 UNK        -0.0787 
     12 C12        30.7081   -3.0094   -5.3262 C.ar      12 UNK        -0.0862 
     13 C13        29.7859   -3.9674   -4.9008 C.ar      12 UNK        -0.0733 
     14 C14        29.4416   -4.0361   -3.5472 C.ar      12 UNK        -0.0832 
     15 C15        29.1937   -4.9614   -5.8881 C.3       12 UNK         0.0240 
     16 S16        27.6004   -4.3964   -6.5543 S.3       12 UNK        -0.2522 
     17 C17        28.0850   -3.5340   -8.0910 C.3       12 UNK        -0.0967 
     18 CA         27.4239   -2.1444   -8.2768 C.3       5 UNK         0.0660 
     19 N          25.9879   -2.1720   -7.9807 N.am      5 UNK        -0.4015 
     20 C          25.1196   -1.1876   -8.2423 C.2       4 UNK         0.4946 
     21 O          25.4182   -0.1674   -8.8615 O.2       4 UNK        -0.5353 
     22 CA         23.6956   -1.3325   -7.6744 C.3       4 UNK         0.0277 
     23 CB         22.7464   -1.8815   -8.7508 C.3       4 UNK        -0.1981 
     24 N          23.5959   -2.1622   -6.4642 N.am      4 UNK        -0.4209 
     25 C          24.2193   -1.9176   -5.3020 C.2       3 UNK         0.4942 
     26 O          25.0138   -0.9899   -5.1381 O.2       3 UNK        -0.5208 
     27 CA         23.9509   -2.9163   -4.1651 C.3       3 UNK         0.0250 
     28 CB         24.8395   -4.1603   -4.3128 C.3       3 UNK        -0.1990 
     29 N          24.1985   -2.3362   -2.8465 N.am      3 UNK        -0.4232 
     30 C          23.3627   -1.5403   -2.1749 C.2       2 UNK         0.4993 
     31 O          22.2758   -1.1646   -2.6168 O.2       2 UNK        -0.5286 
     32 CA         23.7776   -1.1264   -0.7487 C.3       2 UNK         0.0209 
     33 CB         23.6289   -2.3087    0.2293 C.3       2 UNK        -0.1931 
     34 N          25.1032   -0.5007   -0.6135 N.am      2 UNK        -0.4546 
     35 C          26.3193   -1.0089   -0.8720 C.2       1 UNK         0.5154 
     36 O          26.5105   -2.1272   -1.3519 O.2       1 UNK        -0.5181 
     37 C          28.1836   -1.0270   -7.5271 C.2       5 UNK         0.5014 
     38 O          29.2043   -0.5564   -8.0348 O.2       5 UNK        -0.5248 
     39 N          27.6654   -0.5870   -6.3706 N.am      6 UNK        -0.4434 
     40 CA         28.1778    0.5623   -5.6270 C.3       6 UNK         0.0363 
     41 CB         27.6198    0.5326   -4.1976 C.3       6 UNK        -0.1936 
     42 C          27.8051    1.8819   -6.3176 C.2       6 UNK         0.5081 
     43 O          28.6555    2.7616   -6.4396 O.2       6 UNK        -0.5248 
     44 N          26.5517    1.9826   -6.7859 N.am      7 UNK        -0.4718 
     45 CA         26.0254    3.1337   -7.5271 C.3       7 UNK         0.0273 
     46 CB         24.4961    3.0239   -7.6375 C.3       7 UNK        -0.1935 
     47 C          26.6687    3.2814   -8.9159 C.2       7 UNK         0.5018 
     48 O          26.9563    4.4023   -9.3361 O.2       7 UNK        -0.5186 
     49 N          26.9254    2.1448   -9.5784 N.am      8 UNK        -0.4240 
     50 CA         27.6873    2.0505  -10.8270 C.3       8 UNK         0.0235 
     51 CB         27.4476    0.6671  -11.4531 C.3       8 UNK        -0.2000 
     52 C          29.1989    2.2987  -10.6492 C.2       8 UNK         0.4941 
     53 O          29.8869    2.4922  -11.6521 O.2       8 UNK        -0.5273 
     54 N          29.6834    2.2791   -9.3970 N.am      9 UNK        -0.4262 
     55 CA         31.0726    2.4549   -8.9644 C.3       9 UNK         0.0264 
     56 CB         31.5587    3.8928   -9.2443 C.3       9 UNK        -0.1955 
     57 C          32.0105    1.3757   -9.5338 C.2       9 UNK         0.5031 
     58 O          33.0972    1.6950  -10.0217 O.2       9 UNK        -0.5390 
     59 N          31.5871    0.1057   -9.4383 N.am      10 UNK        -0.4204 
     60 CA         32.3202   -1.0671   -9.9357 C.3       10 UNK         0.0237 
     61 CB         31.4460   -2.3187   -9.7654 C.3       10 UNK        -0.1985 
     62 C          33.6961   -1.2823   -9.2754 C.2       10 UNK         0.4970 
     63 O          34.5655   -1.9069   -9.8841 O.2       10 UNK        -0.4914 
     64 N          33.8694   -0.7491   -8.0603 N.am      11 UNK        -0.4285 
     65 CA         35.1424   -0.6958   -7.3286 C.3       11 UNK         0.1007 
     66 C          36.1506    0.3572   -7.8791 C.2       11 UNK         0.5703 
     67 N          35.7749    1.2408   -8.7981 N.am      11 UNK        -0.7361 
     68 O          37.3083    0.3657   -7.4671 O.2       11 UNK        -0.4986 
     69 C69        34.9104   -0.5041   -5.8060 C.3       12 UNK        -0.0947 
     70 S70        33.9663   -1.8773   -5.0657 S.3       12 UNK        -0.2240 
     71 C71        32.3232   -1.1218   -4.8793 C.3       12 UNK         0.0194 
     72 H72        28.1854    0.0530    3.9447 H         1 UNK         0.0906 
     73 H73        27.5959    1.5177    3.1585 H         1 UNK         0.0906 
     74 H74        26.4510    0.3686    3.8527 H         1 UNK         0.0906 
     75 H75        27.6766    1.3873    0.9721 H         1 UNK         0.3140 
     76 H76        27.2904    0.8161   -1.0956 H         1 UNK         0.1085 
     77 H77        29.5572    0.3224   -1.0739 H         1 UNK         0.0836 
     78 H78        28.8187   -0.8717   -2.0695 H         1 UNK         0.0836 
     79 H79        30.2205   -4.1146   -0.6942 H         1 UNK         0.0731 
     80 H80        28.5861   -3.6472   -1.0711 H         1 UNK         0.0731 
     81 H81        31.4641   -1.5918   -2.3381 H         1 UNK         0.1312 
     82 H82        30.9770   -2.9466   -6.3709 H         1 UNK         0.1406 
     83 H83        28.7193   -4.7724   -3.2207 H         1 UNK         0.1631 
     84 H84        29.0350   -5.9173   -5.3866 H         1 UNK         0.0717 
     85 H85        29.8940   -5.1669   -6.6990 H         1 UNK         0.0717 
     86 H86        29.1707   -3.4617   -8.1581 H         1 UNK         0.0934 
     87 H87        27.7923   -4.1785   -8.9213 H         1 UNK         0.0934 
     88 H88        27.5123   -1.8953   -9.3355 H         1 UNK         0.0739 
     89 H89        25.6678   -2.9745   -7.4580 H         1 UNK         0.3093 
     90 H90        23.3597   -0.3290   -7.4050 H         1 UNK         0.0818 
     91 H91        21.7121   -1.8830   -8.4063 H         1 UNK         0.0819 
     92 H92        22.7829   -1.2682   -9.6526 H         1 UNK         0.0819 
     93 H93        23.0075   -2.9004   -9.0394 H         1 UNK         0.0819 
     94 H94        22.9743   -2.9570   -6.5180 H         1 UNK         0.3041 
     95 H95        22.9048   -3.2255   -4.2183 H         1 UNK         0.0784 
     96 H96        24.7146   -4.6287   -5.2897 H         1 UNK         0.0793 
     97 H97        25.8950   -3.9108   -4.1965 H         1 UNK         0.0793 
     98 H98        24.5935   -4.9116   -3.5624 H         1 UNK         0.0793 
     99 H99        25.1069   -2.5127   -2.4207 H         1 UNK         0.3024 
    100 H100       23.0626   -0.3626   -0.4378 H         1 UNK         0.1171 
    101 H101       22.6229   -2.7282    0.1859 H         1 UNK         0.0786 
    102 H102       23.8056   -1.9946    1.2581 H         1 UNK         0.0786 
    103 H103       24.3271   -3.1154    0.0043 H         1 UNK         0.0786 
    104 H104       25.0809    0.4366   -0.2356 H         1 UNK         0.2977 
    105 H105       26.8042   -0.9958   -6.0201 H         1 UNK         0.3127 
    106 H106       29.2661    0.4808   -5.5774 H         1 UNK         0.0770 
    107 H107       26.5975    0.9095   -4.1440 H         1 UNK         0.0814 
    108 H108       28.2284    1.1460   -3.5330 H         1 UNK         0.0814 
    109 H109       27.6034   -0.4849   -3.8108 H         1 UNK         0.0814 
    110 H110       25.9288    1.1968   -6.6601 H         1 UNK         0.2983 
    111 H111       26.2625    4.0353   -6.9576 H         1 UNK         0.0947 
    112 H112       24.0806    3.8941   -8.1474 H         1 UNK         0.0806 
    113 H113       24.0294    2.9725   -6.6537 H         1 UNK         0.0806 
    114 H114       24.1903    2.1419   -8.2009 H         1 UNK         0.0806 
    115 H115       26.5570    1.2745   -9.1985 H         1 UNK         0.3000 
    116 H116       27.3087    2.8103  -11.5139 H         1 UNK         0.0850 
    117 H117       27.9257    0.5926  -12.4307 H         1 UNK         0.0810 
    118 H118       26.3845    0.4715  -11.5953 H         1 UNK         0.0810 
    119 H119       27.8561   -0.1285  -10.8306 H         1 UNK         0.0810 
    120 H120       29.0256    2.1066   -8.6480 H         1 UNK         0.3040 
    121 H121       31.0721    2.3150   -7.8824 H         1 UNK         0.0766 
    122 H122       32.5477    4.0606   -8.8162 H         1 UNK         0.0812 
    123 H123       30.8863    4.6297   -8.8048 H         1 UNK         0.0812 
    124 H124       31.6290    4.0970  -10.3131 H         1 UNK         0.0812 
    125 H125       30.6868   -0.0756   -8.9928 H         1 UNK         0.3205 
    126 H126       32.4939   -0.9123  -11.0025 H         1 UNK         0.0754 
    127 H127       31.9304   -3.1967  -10.1948 H         1 UNK         0.0769 
    128 H128       30.4822   -2.2034  -10.2619 H         1 UNK         0.0769 
    129 H129       31.2609   -2.5301   -8.7127 H         1 UNK         0.0769 
    130 H130       33.0995   -0.2479   -7.6478 H         1 UNK         0.2981 
    131 H131       35.6326   -1.6621   -7.4621 H         1 UNK         0.0541 
    132 H132       34.8292    1.2583   -9.1661 H         1 UNK         0.3459 
    133 H133       36.4507    1.9058   -9.1382 H         1 UNK         0.3459 
    134 H134       34.4067    0.4435   -5.6067 H         1 UNK         0.0612 
    135 H135       35.8643   -0.4561   -5.2776 H         1 UNK         0.0612 
    136 H136       32.3840   -0.2898   -4.1759 H         1 UNK         0.0624 
    137 H137       31.9971   -0.7017   -5.8316 H         1 UNK         0.0624 
@<TRIPOS>BOND
     1    1    2 1    
     2    1   72 1    
     3    1   73 1    
     4    1   74 1    
     5    2    3 2    
     6    2    4 am   BACKBONE|DICT|INTERRES
     7    4    5 1    
     8    4   75 1    
     9    5    6 1    
    10    5   35 1    
    11    5   76 1    
    12    6    7 1    
    13    6   77 1    
    14    6   78 1    
    15    7    8 1    
    16    8    9 1    
    17    8   79 1    
    18    8   80 1    
    19    9   10 ar   
    20    9   14 ar   
    21   10   11 ar   
    22   10   81 1    
    23   11   12 ar   
    24   11   71 1    
    25   12   13 ar   
    26   12   82 1    
    27   13   14 ar   
    28   13   15 1    
    29   14   83 1    
    30   15   16 1    
    31   15   84 1    
    32   15   85 1    
    33   16   17 1    
    34   17   18 1    
    35   17   86 1    
    36   17   87 1    
    37   18   19 1    
    38   18   37 1    
    39   18   88 1    
    40   19   20 am   BACKBONE|DICT|INTERRES
    41   19   89 1    
    42   20   21 2    
    43   20   22 1    
    44   22   23 1    
    45   22   24 1    
    46   22   90 1    
    47   23   91 1    
    48   23   92 1    
    49   23   93 1    
    50   24   25 am   BACKBONE|DICT|INTERRES
    51   24   94 1    
    52   25   26 2    
    53   25   27 1    
    54   27   28 1    
    55   27   29 1    
    56   27   95 1    
    57   28   96 1    
    58   28   97 1    
    59   28   98 1    
    60   29   30 am   BACKBONE|DICT|INTERRES
    61   29   99 1    
    62   30   31 2    
    63   30   32 1    
    64   32   33 1    
    65   32   34 1    
    66   32  100 1    
    67   33  101 1    
    68   33  102 1    
    69   33  103 1    
    70   34   35 am   BACKBONE|DICT|INTERRES
    71   34  104 1    
    72   35   36 2    
    73   37   38 2    
    74   37   39 am   BACKBONE|DICT|INTERRES
    75   39   40 1    
    76   39  105 1    
    77   40   41 1    
    78   40   42 1    
    79   40  106 1    
    80   41  107 1    
    81   41  108 1    
    82   41  109 1    
    83   42   43 2    
    84   42   44 am   BACKBONE|DICT|INTERRES
    85   44   45 1    
    86   44  110 1    
    87   45   46 1    
    88   45   47 1    
    89   45  111 1    
    90   46  112 1    
    91   46  113 1    
    92   46  114 1    
    93   47   48 2    
    94   47   49 am   BACKBONE|DICT|INTERRES
    95   49   50 1    
    96   49  115 1    
    97   50   51 1    
    98   50   52 1    
    99   50  116 1    
   100   51  117 1    
   101   51  118 1    
   102   51  119 1    
   103   52   53 2    
   104   52   54 am   BACKBONE|DICT|INTERRES
   105   54   55 1    
   106   54  120 1    
   107   55   56 1    
   108   55   57 1    
   109   55  121 1    
   110   56  122 1    
   111   56  123 1    
   112   56  124 1    
   113   57   58 2    
   114   57   59 am   BACKBONE|DICT|INTERRES
   115   59   60 1    
   116   59  125 1    
   117   60   61 1    
   118   60   62 1    
   119   60  126 1    
   120   61  127 1    
   121   61  128 1    
   122   61  129 1    
   123   62   63 2    
   124   62   64 am   BACKBONE|DICT|INTERRES
   125   64   65 1    
   126   64  130 1    
   127   65   66 1    
   128   65   69 1    
   129   65  131 1    
   130   66   67 am   BACKBONE|DICT|INTERRES
   131   66   68 2    
   132   67  132 1    
   133   67  133 1    
   134   69   70 1    
   135   69  134 1    
   136   69  135 1    
   137   70   71 1    
   138   71  136 1    
   139   71  137 1    
@<TRIPOS>SUBSTRUCTURE
     1 UNK         1 GROUP             0       ****    0 ROOT    
