@<TRIPOS>MOLECULE
3R137
137   139    1
SMALL
USER_CHARGES


@<TRIPOS>ATOM
      1 CA         27.1831   -7.8589   -2.9230 C.3       0 UNK        -0.2020 
      2 C          27.3617   -6.3748   -2.6419 C.2       0 UNK         0.4855 
      3 O          27.0650   -5.5505   -3.5059 O.2       0 UNK        -0.5197 
      4 N          27.8249   -6.0276   -1.4324 N.am      1 UNK        -0.4892 
      5 CA         28.1129   -4.6746   -0.9231 C.3       1 UNK         0.0835 
      6 C6         29.1452   -3.9048   -1.7922 C.3       12 UNK        -0.0855 
      7 S7         30.2109   -2.8026   -0.8017 S.3       12 UNK        -0.2931 
      8 C8         31.6716   -2.6461   -1.8785 C.3       12 UNK         0.0378 
      9 C9         31.3569   -1.8307   -3.1232 C.ar      12 UNK        -0.0802 
     10 C10        31.4572   -0.4362   -3.0950 C.ar      12 UNK        -0.0944 
     11 C11        31.1475    0.3196   -4.2298 C.ar      12 UNK        -0.0787 
     12 C12        30.7104   -0.3288   -5.3887 C.ar      12 UNK        -0.0862 
     13 C13        30.6242   -1.7224   -5.4335 C.ar      12 UNK        -0.0733 
     14 C14        30.9601   -2.4693   -4.3017 C.ar      12 UNK        -0.0832 
     15 C15        30.1642   -2.4169   -6.7060 C.3       12 UNK         0.0240 
     16 S16        28.6057   -3.3437   -6.5022 S.3       12 UNK        -0.2522 
     17 C17        27.5205   -2.2081   -5.5673 C.3       12 UNK        -0.0967 
     18 CA         26.6389   -1.3071   -6.4685 C.3       5 UNK         0.0660 
     19 N          25.3124   -1.0912   -5.8806 N.am      5 UNK        -0.4015 
     20 C          24.2716   -0.5506   -6.5344 C.2       4 UNK         0.4946 
     21 O          24.3234   -0.2087   -7.7157 O.2       4 UNK        -0.5353 
     22 CA         22.9690   -0.3048   -5.7486 C.3       4 UNK         0.0277 
     23 CB         21.9592   -1.4299   -6.0256 C.3       4 UNK        -0.1981 
     24 N          23.1551   -0.1706   -4.3013 N.am      4 UNK        -0.4209 
     25 C          23.8992    0.7677   -3.6969 C.2       3 UNK         0.4942 
     26 O          24.4776    1.6718   -4.2984 O.2       3 UNK        -0.5208 
     27 CA         24.0863    0.6338   -2.1740 C.3       3 UNK         0.0250 
     28 CB         23.0386    1.4756   -1.4284 C.3       3 UNK        -0.1990 
     29 N          24.0444   -0.7508   -1.6810 N.am      3 UNK        -0.4232 
     30 C          24.8551   -1.7369   -2.0916 C.2       2 UNK         0.4993 
     31 O          25.7076   -1.5980   -2.9724 O.2       2 UNK        -0.5286 
     32 CA         24.6168   -3.1228   -1.4763 C.3       2 UNK         0.0209 
     33 CB         23.5228   -3.8694   -2.2578 C.3       2 UNK        -0.1931 
     34 N          25.8424   -3.9175   -1.5146 N.am      2 UNK        -0.4546 
     35 C          26.8504   -3.8258   -0.6409 C.2       1 UNK         0.5154 
     36 O          26.7997   -3.1304    0.3755 O.2       1 UNK        -0.5181 
     37 C          27.3450    0.0201   -6.8296 C.2       5 UNK         0.5014 
     38 O          28.1613    0.0392   -7.7515 O.2       5 UNK        -0.5248 
     39 N          26.9847    1.1301   -6.1644 N.am      6 UNK        -0.4434 
     40 CA         27.4822    2.4733   -6.4782 C.3       6 UNK         0.0363 
     41 CB         27.0686    3.4502   -5.3673 C.3       6 UNK        -0.1936 
     42 C          27.0357    2.9977   -7.8583 C.2       6 UNK         0.5081 
     43 O          27.6688    3.9198   -8.3706 O.2       6 UNK        -0.5248 
     44 N          25.9875    2.4039   -8.4533 N.am      7 UNK        -0.4718 
     45 CA         25.5746    2.6746   -9.8341 C.3       7 UNK         0.0273 
     46 CB         24.1317    2.1931  -10.0527 C.3       7 UNK        -0.1935 
     47 C          26.5239    2.0318  -10.8618 C.2       7 UNK         0.5018 
     48 O          26.7198    2.6028  -11.9352 O.2       7 UNK        -0.5186 
     49 N          27.1086    0.8747  -10.5140 N.am      8 UNK        -0.4240 
     50 CA         28.1827    0.2317  -11.2766 C.3       8 UNK         0.0235 
     51 CB         28.2338   -1.2698  -10.9458 C.3       8 UNK        -0.2000 
     52 C          29.5382    0.9019  -10.9969 C.2       8 UNK         0.4941 
     53 O          30.3482    1.0337  -11.9144 O.2       8 UNK        -0.5273 
     54 N          29.7400    1.3246   -9.7391 N.am      9 UNK        -0.4262 
     55 CA         30.8722    2.0987   -9.2169 C.3       9 UNK         0.0264 
     56 CB         30.9733    3.4751   -9.9076 C.3       9 UNK        -0.1955 
     57 C          32.2109    1.3380   -9.2135 C.2       9 UNK         0.5031 
     58 O          33.2702    1.9658   -9.1572 O.2       9 UNK        -0.5390 
     59 N          32.1569   -0.0005   -9.2103 N.am      10 UNK        -0.4204 
     60 CA         33.3107   -0.8977   -9.0866 C.3       10 UNK         0.0237 
     61 CB         32.9564   -2.2514   -9.7314 C.3       10 UNK        -0.1985 
     62 C          33.7666   -1.0335   -7.6180 C.2       10 UNK         0.4970 
     63 O          33.8715   -2.1489   -7.1049 O.2       10 UNK        -0.4914 
     64 N          33.9801    0.1108   -6.9599 N.am      11 UNK        -0.4285 
     65 CA         34.2965    0.2282   -5.5319 C.3       11 UNK         0.1007 
     66 C          35.7275   -0.2618   -5.1846 C.2       11 UNK         0.5703 
     67 N          35.9394   -0.7387   -3.9651 N.am      11 UNK        -0.7361 
     68 O          36.6534   -0.1773   -5.9902 O.2       11 UNK        -0.4986 
     69 C69        34.0498    1.6683   -4.9950 C.3       12 UNK        -0.0947 
     70 S70        32.4572    2.4125   -5.5054 S.3       12 UNK        -0.2240 
     71 C71        31.3084    1.8329   -4.2140 C.3       12 UNK         0.0194 
     72 H72        27.7845   -8.1512   -3.7834 H         1 UNK         0.0906 
     73 H73        26.1390   -8.0745   -3.1484 H         1 UNK         0.0906 
     74 H74        27.4819   -8.4753   -2.0754 H         1 UNK         0.0906 
     75 H75        28.0063   -6.7653   -0.7646 H         1 UNK         0.3140 
     76 H76        28.5686   -4.8559    0.0522 H         1 UNK         0.1085 
     77 H77        28.6580   -3.3320   -2.5849 H         1 UNK         0.0836 
     78 H78        29.7971   -4.6166   -2.3006 H         1 UNK         0.0836 
     79 H79        32.4738   -2.1654   -1.3165 H         1 UNK         0.0731 
     80 H80        32.0424   -3.6363   -2.1483 H         1 UNK         0.0731 
     81 H81        31.7789    0.0581   -2.1885 H         1 UNK         0.1312 
     82 H82        30.4615    0.2552   -6.2638 H         1 UNK         0.1406 
     83 H83        30.8854   -3.5477   -4.3350 H         1 UNK         0.1631 
     84 H84        30.9420   -3.1108   -7.0273 H         1 UNK         0.0717 
     85 H85        30.0476   -1.7020   -7.5200 H         1 UNK         0.0717 
     86 H86        26.8848   -2.8696   -4.9761 H         1 UNK         0.0934 
     87 H87        28.0734   -1.6308   -4.8247 H         1 UNK         0.0934 
     88 H88        26.4668   -1.8319   -7.4109 H         1 UNK         0.0739 
     89 H89        25.2256   -1.3080   -4.8918 H         1 UNK         0.3093 
     90 H90        22.5468    0.6340   -6.1132 H         1 UNK         0.0818 
     91 H91        21.7796   -1.5378   -7.0964 H         1 UNK         0.0819 
     92 H92        22.3151   -2.3929   -5.6566 H         1 UNK         0.0819 
     93 H93        20.9961   -1.2245   -5.5580 H         1 UNK         0.0819 
     94 H94        22.7186   -0.8720   -3.7215 H         1 UNK         0.3041 
     95 H95        25.0756    1.0315   -1.9376 H         1 UNK         0.0784 
     96 H96        23.0647    2.5146   -1.7609 H         1 UNK         0.0793 
     97 H97        22.0266    1.1050   -1.5972 H         1 UNK         0.0793 
     98 H98        23.2218    1.4782   -0.3537 H         1 UNK         0.0793 
     99 H99        23.3565   -0.9517   -0.9687 H         1 UNK         0.3024 
    100 H100       24.2995   -3.0035   -0.4376 H         1 UNK         0.1171 
    101 H101       23.7936   -3.9992   -3.3069 H         1 UNK         0.0786 
    102 H102       23.3410   -4.8582   -1.8360 H         1 UNK         0.0786 
    103 H103       22.5764   -3.3281   -2.2282 H         1 UNK         0.0786 
    104 H104       26.0177   -4.4619   -2.3552 H         1 UNK         0.2977 
    105 H105       26.2694    1.0709   -5.4485 H         1 UNK         0.3127 
    106 H106       28.5732    2.4234   -6.4913 H         1 UNK         0.0770 
    107 H107       27.5172    4.4316   -5.5267 H         1 UNK         0.0814 
    108 H108       25.9877    3.5903   -5.3359 H         1 UNK         0.0814 
    109 H109       27.3926    3.1012   -4.3867 H         1 UNK         0.0814 
    110 H110       25.5064    1.6513   -7.9745 H         1 UNK         0.2983 
    111 H111       25.5968    3.7552   -9.9937 H         1 UNK         0.0947 
    112 H112       24.0496    1.1085   -9.9777 H         1 UNK         0.0806 
    113 H113       23.7759    2.4754  -11.0445 H         1 UNK         0.0806 
    114 H114       23.4494    2.6334   -9.3256 H         1 UNK         0.0806 
    115 H115       26.9103    0.4916   -9.5993 H         1 UNK         0.3000 
    116 H116       27.9705    0.3364  -12.3430 H         1 UNK         0.0850 
    117 H117       29.0085   -1.7690  -11.5294 H         1 UNK         0.0810 
    118 H118       27.2880   -1.7582  -11.1805 H         1 UNK         0.0810 
    119 H119       28.4518   -1.4541   -9.8936 H         1 UNK         0.0810 
    120 H120       29.0421    1.0593   -9.0469 H         1 UNK         0.3040 
    121 H121       30.6386    2.2827   -8.1673 H         1 UNK         0.0766 
    122 H122       31.7022    4.1122   -9.4054 H         1 UNK         0.0812 
    123 H123       30.0183    4.0001   -9.8863 H         1 UNK         0.0812 
    124 H124       31.2842    3.3845  -10.9487 H         1 UNK         0.0812 
    125 H125       31.2460   -0.4329   -9.2419 H         1 UNK         0.3205 
    126 H126       34.1493   -0.4751   -9.6442 H         1 UNK         0.0754 
    127 H127       33.8068   -2.9340   -9.7005 H         1 UNK         0.0769 
    128 H128       32.6798   -2.1302  -10.7790 H         1 UNK         0.0769 
    129 H129       32.1264   -2.7401   -9.2203 H         1 UNK         0.0769 
    130 H130       33.8845    0.9806   -7.4716 H         1 UNK         0.2981 
    131 H131       33.6131   -0.4442   -5.0138 H         1 UNK         0.0541 
    132 H132       36.8655   -1.0480   -3.7146 H         1 UNK         0.3459 
    133 H133       35.1910   -0.8023   -3.2931 H         1 UNK         0.3459 
    134 H134       34.8376    2.3369   -5.3469 H         1 UNK         0.0612 
    135 H135       34.1080    1.6819   -3.9052 H         1 UNK         0.0612 
    136 H136       30.3332    2.2936   -4.3772 H         1 UNK         0.0624 
    137 H137       31.6596    2.1826   -3.2420 H         1 UNK         0.0624 
@<TRIPOS>BOND
     1    1    2 1    
     2    1   72 1    
     3    1   73 1    
     4    1   74 1    
     5    2    3 2    
     6    2    4 am   BACKBONE|DICT|INTERRES
     7    4    5 1    
     8    4   75 1    
     9    5    6 1    
    10    5   35 1    
    11    5   76 1    
    12    6    7 1    
    13    6   77 1    
    14    6   78 1    
    15    7    8 1    
    16    8    9 1    
    17    8   79 1    
    18    8   80 1    
    19    9   10 ar   
    20    9   14 ar   
    21   10   11 ar   
    22   10   81 1    
    23   11   12 ar   
    24   11   71 1    
    25   12   13 ar   
    26   12   82 1    
    27   13   14 ar   
    28   13   15 1    
    29   14   83 1    
    30   15   16 1    
    31   15   84 1    
    32   15   85 1    
    33   16   17 1    
    34   17   18 1    
    35   17   86 1    
    36   17   87 1    
    37   18   19 1    
    38   18   37 1    
    39   18   88 1    
    40   19   20 am   BACKBONE|DICT|INTERRES
    41   19   89 1    
    42   20   21 2    
    43   20   22 1    
    44   22   23 1    
    45   22   24 1    
    46   22   90 1    
    47   23   91 1    
    48   23   92 1    
    49   23   93 1    
    50   24   25 am   BACKBONE|DICT|INTERRES
    51   24   94 1    
    52   25   26 2    
    53   25   27 1    
    54   27   28 1    
    55   27   29 1    
    56   27   95 1    
    57   28   96 1    
    58   28   97 1    
    59   28   98 1    
    60   29   30 am   BACKBONE|DICT|INTERRES
    61   29   99 1    
    62   30   31 2    
    63   30   32 1    
    64   32   33 1    
    65   32   34 1    
    66   32  100 1    
    67   33  101 1    
    68   33  102 1    
    69   33  103 1    
    70   34   35 am   BACKBONE|DICT|INTERRES
    71   34  104 1    
    72   35   36 2    
    73   37   38 2    
    74   37   39 am   BACKBONE|DICT|INTERRES
    75   39   40 1    
    76   39  105 1    
    77   40   41 1    
    78   40   42 1    
    79   40  106 1    
    80   41  107 1    
    81   41  108 1    
    82   41  109 1    
    83   42   43 2    
    84   42   44 am   BACKBONE|DICT|INTERRES
    85   44   45 1    
    86   44  110 1    
    87   45   46 1    
    88   45   47 1    
    89   45  111 1    
    90   46  112 1    
    91   46  113 1    
    92   46  114 1    
    93   47   48 2    
    94   47   49 am   BACKBONE|DICT|INTERRES
    95   49   50 1    
    96   49  115 1    
    97   50   51 1    
    98   50   52 1    
    99   50  116 1    
   100   51  117 1    
   101   51  118 1    
   102   51  119 1    
   103   52   53 2    
   104   52   54 am   BACKBONE|DICT|INTERRES
   105   54   55 1    
   106   54  120 1    
   107   55   56 1    
   108   55   57 1    
   109   55  121 1    
   110   56  122 1    
   111   56  123 1    
   112   56  124 1    
   113   57   58 2    
   114   57   59 am   BACKBONE|DICT|INTERRES
   115   59   60 1    
   116   59  125 1    
   117   60   61 1    
   118   60   62 1    
   119   60  126 1    
   120   61  127 1    
   121   61  128 1    
   122   61  129 1    
   123   62   63 2    
   124   62   64 am   BACKBONE|DICT|INTERRES
   125   64   65 1    
   126   64  130 1    
   127   65   66 1    
   128   65   69 1    
   129   65  131 1    
   130   66   67 am   BACKBONE|DICT|INTERRES
   131   66   68 2    
   132   67  132 1    
   133   67  133 1    
   134   69   70 1    
   135   69  134 1    
   136   69  135 1    
   137   70   71 1    
   138   71  136 1    
   139   71  137 1    
@<TRIPOS>SUBSTRUCTURE
     1 UNK         1 GROUP             0       ****    0 ROOT    
