@<TRIPOS>MOLECULE
3R137
137   139    1
SMALL
USER_CHARGES


@<TRIPOS>ATOM
      1 CA         29.6554   -6.4575   -5.8598 C.3       0 UNK        -0.2020 
      2 C          29.2309   -6.3811   -4.4005 C.2       0 UNK         0.4855 
      3 O          29.1819   -7.4049   -3.7185 O.2       0 UNK        -0.5197 
      4 N          28.9225   -5.1751   -3.9190 N.am      1 UNK        -0.4892 
      5 CA         28.5076   -4.8656   -2.5537 C.3       1 UNK         0.0835 
      6 C6         29.7218   -4.9082   -1.5793 C.3       12 UNK        -0.0855 
      7 S7         29.4150   -4.2904    0.1184 S.3       12 UNK        -0.2931 
      8 C8         30.8110   -3.1406    0.3942 C.3       12 UNK         0.0378 
      9 C9         30.9272   -2.0911   -0.7035 C.ar      12 UNK        -0.0802 
     10 C10        32.0388   -2.0783   -1.5504 C.ar      12 UNK        -0.0944 
     11 C11        32.0999   -1.1932   -2.6304 C.ar      12 UNK        -0.0787 
     12 C12        31.0443   -0.3017   -2.8475 C.ar      12 UNK        -0.0862 
     13 C13        29.9424   -0.2764   -1.9822 C.ar      12 UNK        -0.0733 
     14 C14        29.8994   -1.1681   -0.9065 C.ar      12 UNK        -0.0832 
     15 C15        28.7375    0.6213   -2.2397 C.3       12 UNK         0.0240 
     16 S16        29.1341    2.2523   -2.9450 S.3       12 UNK        -0.2522 
     17 C17        27.4812    2.7690   -3.5226 C.3       12 UNK        -0.0967 
     18 CA         27.2904    2.4777   -5.0304 C.3       5 UNK         0.0660 
     19 N          27.3244    1.0441   -5.3352 N.am      5 UNK        -0.4015 
     20 C          27.5549    0.5444   -6.5556 C.2       4 UNK         0.4946 
     21 O          27.7527    1.2397   -7.5480 O.2       4 UNK        -0.5353 
     22 CA         27.5150   -0.9815   -6.7143 C.3       4 UNK         0.0277 
     23 CB         28.9028   -1.5755   -6.4453 C.3       4 UNK        -0.1981 
     24 N          26.5192   -1.6179   -5.8498 N.am      4 UNK        -0.4209 
     25 C          25.1957   -1.4291   -5.9736 C.2       3 UNK         0.4942 
     26 O          24.6944   -0.7096   -6.8377 O.2       3 UNK        -0.5208 
     27 CA         24.2703   -2.1160   -4.9529 C.3       3 UNK         0.0250 
     28 CB         23.7092   -3.4216   -5.5374 C.3       3 UNK        -0.1990 
     29 N          24.9016   -2.3970   -3.6608 N.am      3 UNK        -0.4232 
     30 C          25.4042   -1.4733   -2.8299 C.2       2 UNK         0.4993 
     31 O          25.3858   -0.2620   -3.0573 O.2       2 UNK        -0.5286 
     32 CA         26.0957   -1.9950   -1.5574 C.3       2 UNK         0.0209 
     33 CB         25.0752   -2.1482   -0.4189 C.3       2 UNK        -0.1931 
     34 N          26.8414   -3.2538   -1.7159 N.am      2 UNK        -0.4546 
     35 C          27.7836   -3.5058   -2.6381 C.2       1 UNK         0.5154 
     36 O          28.0626   -2.7281   -3.5559 O.2       1 UNK        -0.5181 
     37 C          26.0121    3.1403   -5.5802 C.2       5 UNK         0.5014 
     38 O          26.0676    4.3042   -5.9782 O.2       5 UNK        -0.5248 
     39 N          24.9007    2.3897   -5.6375 N.am      6 UNK        -0.4434 
     40 CA         23.6582    2.8115   -6.2898 C.3       6 UNK         0.0363 
     41 CB         22.5005    1.9044   -5.8421 C.3       6 UNK        -0.1936 
     42 C          23.7891    2.8226   -7.8235 C.2       6 UNK         0.5081 
     43 O          23.2873    3.7434   -8.4681 O.2       6 UNK        -0.5248 
     44 N          24.4803    1.8159   -8.3771 N.am      7 UNK        -0.4718 
     45 CA         24.7830    1.6920   -9.8073 C.3       7 UNK         0.0273 
     46 CB         25.1998    0.2408  -10.0986 C.3       7 UNK        -0.1935 
     47 C          25.8721    2.6631  -10.3056 C.2       7 UNK         0.5018 
     48 O          25.9801    2.8601  -11.5165 O.2       7 UNK        -0.5186 
     49 N          26.6633    3.2210   -9.3769 N.am      8 UNK        -0.4240 
     50 CA         27.8690    4.0331   -9.5854 C.3       8 UNK         0.0235 
     51 CB         27.5431    5.3560  -10.3115 C.3       8 UNK        -0.2000 
     52 C          29.0015    3.2255  -10.2530 C.2       8 UNK         0.4941 
     53 O          29.6663    3.7208  -11.1657 O.2       8 UNK        -0.5273 
     54 N          29.1891    1.9888   -9.7794 N.am      9 UNK        -0.4262 
     55 CA         30.2140    1.0426  -10.2104 C.3       9 UNK         0.0264 
     56 CB         29.5456   -0.3285  -10.4149 C.3       9 UNK        -0.1955 
     57 C          31.3279    0.9478   -9.1554 C.2       9 UNK         0.5031 
     58 O          31.1325    1.3375   -8.0021 O.2       9 UNK        -0.5390 
     59 N          32.4774    0.3981   -9.5672 N.am      10 UNK        -0.4204 
     60 CA         33.6759    0.2316   -8.7348 C.3       10 UNK         0.0237 
     61 CB         34.9004    0.1095   -9.6596 C.3       10 UNK        -0.1985 
     62 C          33.6200   -0.9574   -7.7520 C.2       10 UNK         0.4970 
     63 O          34.5476   -1.1007   -6.9577 O.2       10 UNK        -0.4914 
     64 N          32.5761   -1.7924   -7.8501 N.am      11 UNK        -0.4285 
     65 CA         32.3152   -3.0232   -7.0780 C.3       11 UNK         0.1007 
     66 C          33.2435   -4.2377   -7.3861 C.2       11 UNK         0.5703 
     67 N          34.1766   -4.1422   -8.3257 N.am      11 UNK        -0.7361 
     68 O          33.0762   -5.3063   -6.8033 O.2       11 UNK        -0.4986 
     69 C69        32.0344   -2.7773   -5.5609 C.3       12 UNK        -0.0947 
     70 S70        33.4715   -2.8099   -4.4312 S.3       12 UNK        -0.2240 
     71 C71        33.3014   -1.2144   -3.5676 C.3       12 UNK         0.0194 
     72 H72        29.6095   -5.4852   -6.3503 H         1 UNK         0.0906 
     73 H73        30.6796   -6.8231   -5.9329 H         1 UNK         0.0906 
     74 H74        29.0079   -7.1435   -6.4052 H         1 UNK         0.0906 
     75 H75        28.9347   -4.3524   -4.5111 H         1 UNK         0.3140 
     76 H76        27.7739   -5.6106   -2.2382 H         1 UNK         0.1085 
     77 H77        30.5582   -4.3681   -2.0225 H         1 UNK         0.0836 
     78 H78        30.0704   -5.9378   -1.4874 H         1 UNK         0.0836 
     79 H79        31.7320   -3.7203    0.4747 H         1 UNK         0.0731 
     80 H80        30.6773   -2.6423    1.3553 H         1 UNK         0.0731 
     81 H81        32.8422   -2.7862   -1.3980 H         1 UNK         0.1312 
     82 H82        31.0756    0.3615   -3.7007 H         1 UNK         0.1406 
     83 H83        29.0388   -1.1876   -0.2520 H         1 UNK         0.1631 
     84 H84        28.1754    0.7816   -1.3184 H         1 UNK         0.0717 
     85 H85        28.0810    0.0833   -2.9206 H         1 UNK         0.0717 
     86 H86        26.7036    2.2876   -2.9256 H         1 UNK         0.0934 
     87 H87        27.3916    3.8398   -3.3281 H         1 UNK         0.0934 
     88 H88        28.1258    2.9428   -5.5598 H         1 UNK         0.0739 
     89 H89        27.1168    0.4101   -4.5764 H         1 UNK         0.3093 
     90 H90        27.2455   -1.2014   -7.7491 H         1 UNK         0.0818 
     91 H91        28.9131   -2.6546   -6.5962 H         1 UNK         0.0819 
     92 H92        29.6478   -1.1422   -7.1135 H         1 UNK         0.0819 
     93 H93        29.2302   -1.3708   -5.4257 H         1 UNK         0.0819 
     94 H94        26.8747   -2.1753   -5.0790 H         1 UNK         0.3041 
     95 H95        23.4356   -1.4363   -4.7687 H         1 UNK         0.0784 
     96 H96        23.2092   -3.2393   -6.4900 H         1 UNK         0.0793 
     97 H97        24.4965   -4.1548   -5.7178 H         1 UNK         0.0793 
     98 H98        22.9744   -3.8728   -4.8704 H         1 UNK         0.0793 
     99 H99        24.9769   -3.3671   -3.3913 H         1 UNK         0.3024 
    100 H100       26.8150   -1.2348   -1.2557 H         1 UNK         0.1171 
    101 H101       25.5657   -2.3896    0.5244 H         1 UNK         0.0786 
    102 H102       24.5199   -1.2218   -0.2637 H         1 UNK         0.0786 
    103 H103       24.3478   -2.9329   -0.6304 H         1 UNK         0.0786 
    104 H104       26.6878   -3.9495   -0.9994 H         1 UNK         0.2977 
    105 H105       24.9365    1.4402   -5.2937 H         1 UNK         0.3127 
    106 H106       23.4317    3.8303   -5.9674 H         1 UNK         0.0770 
    107 H107       22.6527    0.8681   -6.1443 H         1 UNK         0.0814 
    108 H108       21.5583    2.2344   -6.2815 H         1 UNK         0.0814 
    109 H109       22.3767    1.9236   -4.7592 H         1 UNK         0.0814 
    110 H110       24.7879    1.0527   -7.7811 H         1 UNK         0.2983 
    111 H111       23.8719    1.9080  -10.3697 H         1 UNK         0.0947 
    112 H112       25.3716    0.0892  -11.1651 H         1 UNK         0.0806 
    113 H113       24.4283   -0.4651   -9.7902 H         1 UNK         0.0806 
    114 H114       26.1220   -0.0226   -9.5801 H         1 UNK         0.0806 
    115 H115       26.5153    2.9136   -8.4242 H         1 UNK         0.3000 
    116 H116       28.2313    4.2890   -8.5884 H         1 UNK         0.0850 
    117 H117       26.7442    5.8986   -9.8060 H         1 UNK         0.0810 
    118 H118       27.2360    5.1899  -11.3443 H         1 UNK         0.0810 
    119 H119       28.4150    6.0107  -10.3355 H         1 UNK         0.0810 
    120 H120       28.6480    1.7032   -8.9609 H         1 UNK         0.3040 
    121 H121       30.6543    1.3677  -11.1554 H         1 UNK         0.0766 
    122 H122       30.2603   -1.0733  -10.7664 H         1 UNK         0.0812 
    123 H123       28.7512   -0.2699  -11.1594 H         1 UNK         0.0812 
    124 H124       29.1042   -0.7047   -9.4917 H         1 UNK         0.0812 
    125 H125       32.5541    0.0988  -10.5295 H         1 UNK         0.3205 
    126 H126       33.8001    1.1328   -8.1302 H         1 UNK         0.0754 
    127 H127       35.8237    0.0343   -9.0830 H         1 UNK         0.0769 
    128 H128       34.9987    0.9826  -10.3051 H         1 UNK         0.0769 
    129 H129       34.8413   -0.7744  -10.2959 H         1 UNK         0.0769 
    130 H130       31.8960   -1.5892   -8.5657 H         1 UNK         0.2981 
    131 H131       31.3598   -3.3501   -7.4899 H         1 UNK         0.0541 
    132 H132       34.7553   -4.9421   -8.5276 H         1 UNK         0.3459 
    133 H133       34.3270   -3.2732   -8.8107 H         1 UNK         0.3459 
    134 H134       31.5131   -1.8292   -5.4365 H         1 UNK         0.0612 
    135 H135       31.3409   -3.5371   -5.1974 H         1 UNK         0.0612 
    136 H136       33.2428   -0.4128   -4.3057 H         1 UNK         0.0624 
    137 H137       34.2065   -1.0327   -2.9867 H         1 UNK         0.0624 
@<TRIPOS>BOND
     1    1    2 1    
     2    1   72 1    
     3    1   73 1    
     4    1   74 1    
     5    2    3 2    
     6    2    4 am   BACKBONE|DICT|INTERRES
     7    4    5 1    
     8    4   75 1    
     9    5    6 1    
    10    5   35 1    
    11    5   76 1    
    12    6    7 1    
    13    6   77 1    
    14    6   78 1    
    15    7    8 1    
    16    8    9 1    
    17    8   79 1    
    18    8   80 1    
    19    9   10 ar   
    20    9   14 ar   
    21   10   11 ar   
    22   10   81 1    
    23   11   12 ar   
    24   11   71 1    
    25   12   13 ar   
    26   12   82 1    
    27   13   14 ar   
    28   13   15 1    
    29   14   83 1    
    30   15   16 1    
    31   15   84 1    
    32   15   85 1    
    33   16   17 1    
    34   17   18 1    
    35   17   86 1    
    36   17   87 1    
    37   18   19 1    
    38   18   37 1    
    39   18   88 1    
    40   19   20 am   BACKBONE|DICT|INTERRES
    41   19   89 1    
    42   20   21 2    
    43   20   22 1    
    44   22   23 1    
    45   22   24 1    
    46   22   90 1    
    47   23   91 1    
    48   23   92 1    
    49   23   93 1    
    50   24   25 am   BACKBONE|DICT|INTERRES
    51   24   94 1    
    52   25   26 2    
    53   25   27 1    
    54   27   28 1    
    55   27   29 1    
    56   27   95 1    
    57   28   96 1    
    58   28   97 1    
    59   28   98 1    
    60   29   30 am   BACKBONE|DICT|INTERRES
    61   29   99 1    
    62   30   31 2    
    63   30   32 1    
    64   32   33 1    
    65   32   34 1    
    66   32  100 1    
    67   33  101 1    
    68   33  102 1    
    69   33  103 1    
    70   34   35 am   BACKBONE|DICT|INTERRES
    71   34  104 1    
    72   35   36 2    
    73   37   38 2    
    74   37   39 am   BACKBONE|DICT|INTERRES
    75   39   40 1    
    76   39  105 1    
    77   40   41 1    
    78   40   42 1    
    79   40  106 1    
    80   41  107 1    
    81   41  108 1    
    82   41  109 1    
    83   42   43 2    
    84   42   44 am   BACKBONE|DICT|INTERRES
    85   44   45 1    
    86   44  110 1    
    87   45   46 1    
    88   45   47 1    
    89   45  111 1    
    90   46  112 1    
    91   46  113 1    
    92   46  114 1    
    93   47   48 2    
    94   47   49 am   BACKBONE|DICT|INTERRES
    95   49   50 1    
    96   49  115 1    
    97   50   51 1    
    98   50   52 1    
    99   50  116 1    
   100   51  117 1    
   101   51  118 1    
   102   51  119 1    
   103   52   53 2    
   104   52   54 am   BACKBONE|DICT|INTERRES
   105   54   55 1    
   106   54  120 1    
   107   55   56 1    
   108   55   57 1    
   109   55  121 1    
   110   56  122 1    
   111   56  123 1    
   112   56  124 1    
   113   57   58 2    
   114   57   59 am   BACKBONE|DICT|INTERRES
   115   59   60 1    
   116   59  125 1    
   117   60   61 1    
   118   60   62 1    
   119   60  126 1    
   120   61  127 1    
   121   61  128 1    
   122   61  129 1    
   123   62   63 2    
   124   62   64 am   BACKBONE|DICT|INTERRES
   125   64   65 1    
   126   64  130 1    
   127   65   66 1    
   128   65   69 1    
   129   65  131 1    
   130   66   67 am   BACKBONE|DICT|INTERRES
   131   66   68 2    
   132   67  132 1    
   133   67  133 1    
   134   69   70 1    
   135   69  134 1    
   136   69  135 1    
   137   70   71 1    
   138   71  136 1    
   139   71  137 1    
@<TRIPOS>SUBSTRUCTURE
     1 UNK         1 GROUP             0       ****    0 ROOT    
