@<TRIPOS>MOLECULE
3R137
137   139    1
SMALL
USER_CHARGES


@<TRIPOS>ATOM
      1 CA         27.8146   -6.2065   -2.0088 C.3       0 UNK        -0.2020 
      2 C          27.4893   -4.8964   -1.3072 C.2       0 UNK         0.4855 
      3 O          27.6611   -4.7938   -0.0929 O.2       0 UNK        -0.5197 
      4 N          27.0253   -3.9003   -2.0670 N.am      1 UNK        -0.4892 
      5 CA         26.5898   -2.5867   -1.5919 C.3       1 UNK         0.0835 
      6 C6         27.6006   -1.4734   -1.9827 C.3       12 UNK        -0.0855 
      7 S7         28.6429   -0.9433   -0.5805 S.3       12 UNK        -0.2931 
      8 C8         30.0591   -2.0922   -0.6242 C.3       12 UNK         0.0378 
      9 C9         30.8712   -2.0150   -1.9110 C.ar      12 UNK        -0.0802 
     10 C10        31.7889   -0.9788   -2.1157 C.ar      12 UNK        -0.0944 
     11 C11        32.5742   -0.9309   -3.2745 C.ar      12 UNK        -0.0787 
     12 C12        32.4217   -1.9422   -4.2335 C.ar      12 UNK        -0.0862 
     13 C13        31.4947   -2.9708   -4.0507 C.ar      12 UNK        -0.0733 
     14 C14        30.7319   -3.0091   -2.8820 C.ar      12 UNK        -0.0832 
     15 C15        31.3292   -4.0440   -5.1162 C.3       12 UNK         0.0240 
     16 S16        30.3501   -3.4459   -6.5304 S.3       12 UNK        -0.2522 
     17 C17        28.6680   -3.3789   -5.8226 C.3       12 UNK        -0.0967 
     18 CA         27.8130   -2.2260   -6.4147 C.3       5 UNK         0.0660 
     19 N          26.3854   -2.4642   -6.2710 N.am      5 UNK        -0.4015 
     20 C          25.6086   -3.2536   -7.0192 C.2       4 UNK         0.4946 
     21 O          26.0309   -3.9766   -7.9220 O.2       4 UNK        -0.5353 
     22 CA         24.0995   -3.2286   -6.7083 C.3       4 UNK         0.0277 
     23 CB         23.6649   -4.5386   -6.0299 C.3       4 UNK        -0.1981 
     24 N          23.7541   -2.1003   -5.8375 N.am      4 UNK        -0.4209 
     25 C          23.4168   -0.8765   -6.2705 C.2       3 UNK         0.4942 
     26 O          23.1887   -0.6230   -7.4536 O.2       3 UNK        -0.5208 
     27 CA         23.3802    0.2722   -5.2365 C.3       3 UNK         0.0250 
     28 CB         22.2002    1.2384   -5.4746 C.3       3 UNK        -0.1990 
     29 N          23.4432   -0.1616   -3.8324 N.am      3 UNK        -0.4232 
     30 C          22.5406   -0.8977   -3.1662 C.2       2 UNK         0.4993 
     31 O          21.4623   -1.2529   -3.6448 O.2       2 UNK        -0.5286 
     32 CA         22.9253   -1.3415   -1.7375 C.3       2 UNK         0.0209 
     33 CB         22.1466   -2.5998   -1.2962 C.3       2 UNK        -0.1931 
     34 N          24.3662   -1.5531   -1.5033 N.am      2 UNK        -0.4546 
     35 C          25.1995   -2.3390   -2.2034 C.2       1 UNK         0.5154 
     36 O          24.9170   -2.8480   -3.2925 O.2       1 UNK        -0.5181 
     37 C          28.0888   -0.8265   -5.8257 C.2       5 UNK         0.5014 
     38 O          27.1603   -0.0165   -5.7324 O.2       5 UNK        -0.5248 
     39 N          29.3461   -0.5555   -5.4530 N.am      6 UNK        -0.4434 
     40 CA         29.8769    0.7483   -5.0392 C.3       6 UNK         0.0363 
     41 CB         29.2733    1.2245   -3.7012 C.3       6 UNK        -0.1936 
     42 C          29.7644    1.7629   -6.1847 C.2       6 UNK         0.5081 
     43 O          30.1440    1.4190   -7.3045 O.2       6 UNK        -0.5248 
     44 N          29.2483    2.9701   -5.9174 N.am      7 UNK        -0.4718 
     45 CA         29.1141    4.0738   -6.8778 C.3       7 UNK         0.0273 
     46 CB         28.4753    5.2820   -6.1751 C.3       7 UNK        -0.1935 
     47 C          28.3333    3.7230   -8.1580 C.2       7 UNK         0.5018 
     48 O          28.6312    4.2831   -9.2127 O.2       7 UNK        -0.5186 
     49 N          27.3977    2.7675   -8.0600 N.am      8 UNK        -0.4240 
     50 CA         26.6430    2.2151   -9.1881 C.3       8 UNK         0.0235 
     51 CB         25.4973    1.3485   -8.6437 C.3       8 UNK        -0.2000 
     52 C          27.5018    1.4034  -10.1787 C.2       8 UNK         0.4941 
     53 O          27.0988    1.2591  -11.3333 O.2       8 UNK        -0.5273 
     54 N          28.6542    0.8934   -9.7227 N.am      9 UNK        -0.4262 
     55 CA         29.6092    0.1091  -10.5095 C.3       9 UNK         0.0264 
     56 CB         29.6801   -1.3070   -9.9079 C.3       9 UNK        -0.1955 
     57 C          31.0050    0.7603  -10.5398 C.2       9 UNK         0.5031 
     58 O          31.9573    0.1041  -10.9643 O.2       9 UNK        -0.5390 
     59 N          31.1279    2.0024  -10.0413 N.am      10 UNK        -0.4204 
     60 CA         32.3748    2.7452   -9.7947 C.3       10 UNK         0.0237 
     61 CB         32.9991    3.2049  -11.1290 C.3       10 UNK        -0.1985 
     62 C          33.3777    1.9822   -8.8968 C.2       10 UNK         0.4970 
     63 O          34.5891    2.1074   -9.0837 O.2       10 UNK        -0.4914 
     64 N          32.8464    1.1850   -7.9590 N.am      11 UNK        -0.4285 
     65 CA         33.5609    0.2169   -7.1130 C.3       11 UNK         0.1007 
     66 C          34.2180   -0.9666   -7.8989 C.2       11 UNK         0.5703 
     67 N          33.8625   -1.2161   -9.1546 N.am      11 UNK        -0.7361 
     68 O          35.0393   -1.7037   -7.3612 O.2       11 UNK        -0.4986 
     69 C69        34.4939    0.9228   -6.0831 C.3       12 UNK        -0.0947 
     70 S70        34.9337   -0.0699   -4.6088 S.3       12 UNK        -0.2240 
     71 C71        33.5496    0.2378   -3.4543 C.3       12 UNK         0.0194 
     72 H72        27.1934   -7.0088   -1.6116 H         1 UNK         0.0906 
     73 H73        27.6467   -6.1479   -3.0842 H         1 UNK         0.0906 
     74 H74        28.8588   -6.4708   -1.8436 H         1 UNK         0.0906 
     75 H75        26.7791   -4.0779   -3.0323 H         1 UNK         0.3140 
     76 H76        26.4559   -2.6101   -0.5077 H         1 UNK         0.1085 
     77 H77        28.2241   -1.7721   -2.8249 H         1 UNK         0.0836 
     78 H78        27.0898   -0.5705   -2.3240 H         1 UNK         0.0836 
     79 H79        30.7113   -1.8661    0.2205 H         1 UNK         0.0731 
     80 H80        29.7032   -3.1081   -0.4561 H         1 UNK         0.0731 
     81 H81        31.8923   -0.2075   -1.3644 H         1 UNK         0.1312 
     82 H82        33.0189   -1.9447   -5.1325 H         1 UNK         0.1406 
     83 H83        30.0292   -3.8154   -2.7250 H         1 UNK         0.1631 
     84 H84        30.8628   -4.9394   -4.7021 H         1 UNK         0.0717 
     85 H85        32.3126   -4.3516   -5.4752 H         1 UNK         0.0717 
     86 H86        28.2047   -4.3404   -6.0501 H         1 UNK         0.0934 
     87 H87        28.6964   -3.3218   -4.7350 H         1 UNK         0.0934 
     88 H88        28.0162   -2.1499   -7.4845 H         1 UNK         0.0739 
     89 H89        25.9401   -1.8498   -5.6027 H         1 UNK         0.3093 
     90 H90        23.5659   -3.1412   -7.6571 H         1 UNK         0.0818 
     91 H91        22.5964   -4.5368   -5.8139 H         1 UNK         0.0819 
     92 H92        23.8641   -5.3957   -6.6745 H         1 UNK         0.0819 
     93 H93        24.1957   -4.7066   -5.0922 H         1 UNK         0.0819 
     94 H94        23.9230   -2.2433   -4.8449 H         1 UNK         0.3041 
     95 H95        24.2982    0.8376   -5.4065 H         1 UNK         0.0784 
     96 H96        22.2546    1.6849   -6.4683 H         1 UNK         0.0793 
     97 H97        21.2380    0.7309   -5.4018 H         1 UNK         0.0793 
     98 H98        22.2048    2.0563   -4.7542 H         1 UNK         0.0793 
     99 H99        24.2973    0.0715   -3.3452 H         1 UNK         0.3024 
    100 H100       22.6221   -0.5208   -1.0849 H         1 UNK         0.1171 
    101 H101       22.3632   -3.4523   -1.9414 H         1 UNK         0.0786 
    102 H102       21.0693   -2.4313   -1.3285 H         1 UNK         0.0786 
    103 H103       22.3943   -2.8826   -0.2731 H         1 UNK         0.0786 
    104 H104       24.7223   -1.1340   -0.6542 H         1 UNK         0.2977 
    105 H105       30.0343   -1.2874   -5.5795 H         1 UNK         0.3127 
    106 H106       30.9451    0.6085   -4.8872 H         1 UNK         0.0770 
    107 H107       29.4524    0.4872   -2.9236 H         1 UNK         0.0814 
    108 H108       28.1978    1.3921   -3.7607 H         1 UNK         0.0814 
    109 H109       29.7398    2.1489   -3.3590 H         1 UNK         0.0814 
    110 H110       28.9425    3.1560   -4.9729 H         1 UNK         0.2983 
    111 H111       30.1230    4.3537   -7.1884 H         1 UNK         0.0947 
    112 H112       28.3835    6.1280   -6.8581 H         1 UNK         0.0806 
    113 H113       29.0783    5.6161   -5.3306 H         1 UNK         0.0806 
    114 H114       27.4752    5.0521   -5.8054 H         1 UNK         0.0806 
    115 H115       27.2422    2.3425   -7.1556 H         1 UNK         0.3000 
    116 H116       26.2090    3.0506   -9.7417 H         1 UNK         0.0850 
    117 H117       24.8797    0.9601   -9.4547 H         1 UNK         0.0810 
    118 H118       24.8410    1.9185   -7.9859 H         1 UNK         0.0810 
    119 H119       25.8701    0.4901   -8.0837 H         1 UNK         0.0810 
    120 H120       28.9279    1.0752   -8.7602 H         1 UNK         0.3040 
    121 H121       29.2800    0.0284  -11.5472 H         1 UNK         0.0766 
    122 H122       30.3418   -1.9515  -10.4881 H         1 UNK         0.0812 
    123 H123       28.6994   -1.7826   -9.8971 H         1 UNK         0.0812 
    124 H124       30.0581   -1.2892   -8.8847 H         1 UNK         0.0812 
    125 H125       30.2834    2.4568   -9.7211 H         1 UNK         0.3205 
    126 H126       32.0912    3.6382   -9.2357 H         1 UNK         0.0754 
    127 H127       33.8514    3.8638  -10.9584 H         1 UNK         0.0769 
    128 H128       32.2800    3.7585  -11.7328 H         1 UNK         0.0769 
    129 H129       33.3535    2.3600  -11.7206 H         1 UNK         0.0769 
    130 H130       31.8330    1.1805   -7.8614 H         1 UNK         0.2981 
    131 H131       32.7562   -0.2479   -6.5470 H         1 UNK         0.0541 
    132 H132       33.1910   -0.6360   -9.6478 H         1 UNK         0.3459 
    133 H133       34.2905   -1.9918   -9.6331 H         1 UNK         0.3459 
    134 H134       34.0332    1.8481   -5.7342 H         1 UNK         0.0612 
    135 H135       35.4213    1.2270   -6.5708 H         1 UNK         0.0612 
    136 H136       33.9894    0.4804   -2.4859 H         1 UNK         0.0624 
    137 H137       32.9946    1.1237   -3.7630 H         1 UNK         0.0624 
@<TRIPOS>BOND
     1    1    2 1    
     2    1   72 1    
     3    1   73 1    
     4    1   74 1    
     5    2    3 2    
     6    2    4 am   BACKBONE|DICT|INTERRES
     7    4    5 1    
     8    4   75 1    
     9    5    6 1    
    10    5   35 1    
    11    5   76 1    
    12    6    7 1    
    13    6   77 1    
    14    6   78 1    
    15    7    8 1    
    16    8    9 1    
    17    8   79 1    
    18    8   80 1    
    19    9   10 ar   
    20    9   14 ar   
    21   10   11 ar   
    22   10   81 1    
    23   11   12 ar   
    24   11   71 1    
    25   12   13 ar   
    26   12   82 1    
    27   13   14 ar   
    28   13   15 1    
    29   14   83 1    
    30   15   16 1    
    31   15   84 1    
    32   15   85 1    
    33   16   17 1    
    34   17   18 1    
    35   17   86 1    
    36   17   87 1    
    37   18   19 1    
    38   18   37 1    
    39   18   88 1    
    40   19   20 am   BACKBONE|DICT|INTERRES
    41   19   89 1    
    42   20   21 2    
    43   20   22 1    
    44   22   23 1    
    45   22   24 1    
    46   22   90 1    
    47   23   91 1    
    48   23   92 1    
    49   23   93 1    
    50   24   25 am   BACKBONE|DICT|INTERRES
    51   24   94 1    
    52   25   26 2    
    53   25   27 1    
    54   27   28 1    
    55   27   29 1    
    56   27   95 1    
    57   28   96 1    
    58   28   97 1    
    59   28   98 1    
    60   29   30 am   BACKBONE|DICT|INTERRES
    61   29   99 1    
    62   30   31 2    
    63   30   32 1    
    64   32   33 1    
    65   32   34 1    
    66   32  100 1    
    67   33  101 1    
    68   33  102 1    
    69   33  103 1    
    70   34   35 am   BACKBONE|DICT|INTERRES
    71   34  104 1    
    72   35   36 2    
    73   37   38 2    
    74   37   39 am   BACKBONE|DICT|INTERRES
    75   39   40 1    
    76   39  105 1    
    77   40   41 1    
    78   40   42 1    
    79   40  106 1    
    80   41  107 1    
    81   41  108 1    
    82   41  109 1    
    83   42   43 2    
    84   42   44 am   BACKBONE|DICT|INTERRES
    85   44   45 1    
    86   44  110 1    
    87   45   46 1    
    88   45   47 1    
    89   45  111 1    
    90   46  112 1    
    91   46  113 1    
    92   46  114 1    
    93   47   48 2    
    94   47   49 am   BACKBONE|DICT|INTERRES
    95   49   50 1    
    96   49  115 1    
    97   50   51 1    
    98   50   52 1    
    99   50  116 1    
   100   51  117 1    
   101   51  118 1    
   102   51  119 1    
   103   52   53 2    
   104   52   54 am   BACKBONE|DICT|INTERRES
   105   54   55 1    
   106   54  120 1    
   107   55   56 1    
   108   55   57 1    
   109   55  121 1    
   110   56  122 1    
   111   56  123 1    
   112   56  124 1    
   113   57   58 2    
   114   57   59 am   BACKBONE|DICT|INTERRES
   115   59   60 1    
   116   59  125 1    
   117   60   61 1    
   118   60   62 1    
   119   60  126 1    
   120   61  127 1    
   121   61  128 1    
   122   61  129 1    
   123   62   63 2    
   124   62   64 am   BACKBONE|DICT|INTERRES
   125   64   65 1    
   126   64  130 1    
   127   65   66 1    
   128   65   69 1    
   129   65  131 1    
   130   66   67 am   BACKBONE|DICT|INTERRES
   131   66   68 2    
   132   67  132 1    
   133   67  133 1    
   134   69   70 1    
   135   69  134 1    
   136   69  135 1    
   137   70   71 1    
   138   71  136 1    
   139   71  137 1    
@<TRIPOS>SUBSTRUCTURE
     1 UNK         1 GROUP             0       ****    0 ROOT    
