@<TRIPOS>MOLECULE
3R137
137   139    1
SMALL
USER_CHARGES


@<TRIPOS>ATOM
      1 CA         22.9864   -5.5407   -1.8972 C.3       0 UNK        -0.2020 
      2 C          24.2347   -5.1474   -1.1212 C.2       0 UNK         0.4855 
      3 O          24.3123   -5.3923    0.0829 O.2       0 UNK        -0.5197 
      4 N          25.2095   -4.5372   -1.8002 N.am      1 UNK        -0.4892 
      5 CA         26.4609   -4.0363   -1.2381 C.3       1 UNK         0.0835 
      6 C6         27.5224   -5.1606   -1.1146 C.3       12 UNK        -0.0855 
      7 S7         28.9717   -4.6959   -0.0997 S.3       12 UNK        -0.2931 
      8 C8         30.3708   -5.2819   -1.1130 C.3       12 UNK         0.0378 
      9 C9         30.5748   -4.4464   -2.3702 C.ar      12 UNK        -0.0802 
     10 C10        31.3181   -3.2608   -2.3221 C.ar      12 UNK        -0.0944 
     11 C11        31.5110   -2.4998   -3.4805 C.ar      12 UNK        -0.0787 
     12 C12        30.9593   -2.9329   -4.6870 C.ar      12 UNK        -0.0862 
     13 C13        30.2099   -4.1088   -4.7462 C.ar      12 UNK        -0.0733 
     14 C14        30.0341   -4.8697   -3.5888 C.ar      12 UNK        -0.0832 
     15 C15        29.5729   -4.5457   -6.0555 C.3       12 UNK         0.0240 
     16 S16        27.8856   -3.8830   -6.2148 S.3       12 UNK        -0.2522 
     17 C17        28.2302   -2.1021   -6.4035 C.3       12 UNK        -0.0967 
     18 CA         26.9876   -1.3153   -6.8680 C.3       5 UNK         0.0660 
     19 N          25.9081   -1.3567   -5.8752 N.am      5 UNK        -0.4015 
     20 C          24.6386   -0.9925   -6.1077 C.2       4 UNK         0.4946 
     21 O          24.2354   -0.5593   -7.1883 O.2       4 UNK        -0.5353 
     22 CA         23.6694   -1.0951   -4.9217 C.3       4 UNK         0.0277 
     23 CB         23.2403   -2.5531   -4.6850 C.3       4 UNK        -0.1981 
     24 N          24.2779   -0.5482   -3.7075 N.am      4 UNK        -0.4209 
     25 C          24.2914    0.7571   -3.3986 C.2       3 UNK         0.4942 
     26 O          23.7126    1.6211   -4.0572 O.2       3 UNK        -0.5208 
     27 CA         25.0914    1.1832   -2.1532 C.3       3 UNK         0.0250 
     28 CB         24.1758    1.2358   -0.9197 C.3       3 UNK        -0.1990 
     29 N          26.2419    0.3225   -1.8649 N.am      3 UNK        -0.4232 
     30 C          27.3172    0.1914   -2.6552 C.2       2 UNK         0.4993 
     31 O          27.4699    0.8026   -3.7093 O.2       2 UNK        -0.5286 
     32 CA         28.3766   -0.8354   -2.2261 C.3       2 UNK         0.0209 
     33 CB         29.4080   -0.1795   -1.2945 C.3       2 UNK        -0.1931 
     34 N          27.8190   -2.0258   -1.5768 N.am      2 UNK        -0.4546 
     35 C          26.9073   -2.8486   -2.1116 C.2       1 UNK         0.5154 
     36 O          26.3902   -2.6672   -3.2212 O.2       1 UNK        -0.5181 
     37 C          27.3799    0.1137   -7.2994 C.2       5 UNK         0.5014 
     38 O          28.0051    0.2586   -8.3502 O.2       5 UNK        -0.5248 
     39 N          26.9950    1.1445   -6.5320 N.am      6 UNK        -0.4434 
     40 CA         27.1798    2.5717   -6.8268 C.3       6 UNK         0.0363 
     41 CB         26.5704    3.4068   -5.6889 C.3       6 UNK        -0.1936 
     42 C          26.6109    3.0368   -8.1818 C.2       6 UNK         0.5081 
     43 O          27.0820    4.0433   -8.7101 O.2       6 UNK        -0.5248 
     44 N          25.6425    2.2930   -8.7375 N.am      7 UNK        -0.4718 
     45 CA         25.1254    2.4815  -10.0962 C.3       7 UNK         0.0273 
     46 CB         23.8832    1.5978  -10.2906 C.3       7 UNK        -0.1935 
     47 C          26.1738    2.1905  -11.1890 C.2       7 UNK         0.5018 
     48 O          26.1471    2.8408  -12.2345 O.2       7 UNK        -0.5186 
     49 N          27.0777    1.2367  -10.9239 N.am      8 UNK        -0.4240 
     50 CA         28.2331    0.9167  -11.7660 C.3       8 UNK         0.0235 
     51 CB         28.4509   -0.6060  -11.7630 C.3       8 UNK        -0.2000 
     52 C          29.5053    1.6339  -11.2817 C.2       8 UNK         0.4941 
     53 O          30.3817    1.9114  -12.1006 O.2       8 UNK        -0.5273 
     54 N          29.5814    1.9042   -9.9685 N.am      9 UNK        -0.4262 
     55 CA         30.6984    2.4998   -9.2263 C.3       9 UNK         0.0264 
     56 CB         30.9814    3.9426   -9.6950 C.3       9 UNK        -0.1955 
     57 C          31.9429    1.5937   -9.2389 C.2       9 UNK         0.5031 
     58 O          33.0580    2.0711   -9.4565 O.2       9 UNK        -0.5390 
     59 N          31.7212    0.2919   -9.0016 N.am      10 UNK        -0.4204 
     60 CA         32.7210   -0.7796   -9.0894 C.3       10 UNK         0.0237 
     61 CB         32.0361   -2.1311   -8.8279 C.3       10 UNK        -0.1985 
     62 C          33.9536   -0.6094   -8.1796 C.2       10 UNK         0.4970 
     63 O          35.0413   -1.0349   -8.5708 O.2       10 UNK        -0.4914 
     64 N          33.7726    0.0135   -7.0075 N.am      11 UNK        -0.4285 
     65 CA         34.8615    0.3723   -6.0806 C.3       11 UNK         0.1007 
     66 C          35.5307    1.7443   -6.3943 C.2       11 UNK         0.5703 
     67 N          35.1248    2.4801   -7.4231 N.am      11 UNK        -0.7361 
     68 O          36.4569    2.1480   -5.6947 O.2       11 UNK        -0.4986 
     69 C69        34.4227    0.2705   -4.5935 C.3       12 UNK        -0.0947 
     70 S70        33.9630   -1.4339   -4.1317 S.3       12 UNK        -0.2240 
     71 C71        32.2947   -1.1982   -3.4503 C.3       12 UNK         0.0194 
     72 H72        22.8027   -6.6100   -1.7953 H         1 UNK         0.0906 
     73 H73        23.0771   -5.3135   -2.9592 H         1 UNK         0.0906 
     74 H74        22.1194   -5.0072   -1.5086 H         1 UNK         0.0906 
     75 H75        25.0974   -4.3048   -2.7798 H         1 UNK         0.3140 
     76 H76        26.2489   -3.6392   -0.2425 H         1 UNK         0.1085 
     77 H77        27.0756   -6.0314   -0.6324 H         1 UNK         0.0836 
     78 H78        27.8259   -5.5045   -2.1018 H         1 UNK         0.0836 
     79 H79        31.2775   -5.2500   -0.5069 H         1 UNK         0.0731 
     80 H80        30.2181   -6.3315   -1.3693 H         1 UNK         0.0731 
     81 H81        31.7415   -2.9306   -1.3835 H         1 UNK         0.1312 
     82 H82        31.1053   -2.3411   -5.5785 H         1 UNK         0.1406 
     83 H83        29.4655   -5.7877   -3.6403 H         1 UNK         0.1631 
     84 H84        29.5309   -5.6348   -6.1044 H         1 UNK         0.0717 
     85 H85        30.1783   -4.2259   -6.9050 H         1 UNK         0.0717 
     86 H86        28.5922   -1.7045   -5.4547 H         1 UNK         0.0934 
     87 H87        29.0450   -1.9941   -7.1224 H         1 UNK         0.0934 
     88 H88        26.6083   -1.8002   -7.7703 H         1 UNK         0.0739 
     89 H89        26.1485   -1.7471   -4.9686 H         1 UNK         0.3093 
     90 H90        22.7742   -0.5184   -5.1655 H         1 UNK         0.0818 
     91 H91        22.7223   -2.9492   -5.5594 H         1 UNK         0.0819 
     92 H92        24.0915   -3.2057   -4.4923 H         1 UNK         0.0819 
     93 H93        22.5560   -2.6332   -3.8401 H         1 UNK         0.0819 
     94 H94        24.8245   -1.1881   -3.1452 H         1 UNK         0.3041 
     95 H95        25.4711    2.1900   -2.3411 H         1 UNK         0.0784 
     96 H96        23.3221    1.8921   -1.0955 H         1 UNK         0.0793 
     97 H97        23.7822    0.2509   -0.6650 H         1 UNK         0.0793 
     98 H98        24.7045    1.6232   -0.0484 H         1 UNK         0.0793 
     99 H99        26.2067   -0.2202   -1.0143 H         1 UNK         0.3024 
    100 H100       28.8905   -1.1708   -3.1286 H         1 UNK         0.1171 
    101 H101       28.9488    0.1846   -0.3746 H         1 UNK         0.0786 
    102 H102       30.1978   -0.8773   -1.0184 H         1 UNK         0.0786 
    103 H103       29.8854    0.6723   -1.7812 H         1 UNK         0.0786 
    104 H104       28.2150   -2.2782   -0.6814 H         1 UNK         0.2977 
    105 H105       26.6103    0.9304   -5.6191 H         1 UNK         0.3127 
    106 H106       28.2547    2.7592   -6.8492 H         1 UNK         0.0770 
    107 H107       26.6817    4.4748   -5.8821 H         1 UNK         0.0814 
    108 H108       25.5052    3.2060   -5.5688 H         1 UNK         0.0814 
    109 H109       27.0604    3.2033   -4.7372 H         1 UNK         0.0814 
    110 H110       25.2943    1.4945   -8.2220 H         1 UNK         0.2983 
    111 H111       24.8249    3.5265  -10.2004 H         1 UNK         0.0947 
    112 H112       24.1166    0.5393  -10.1664 H         1 UNK         0.0806 
    113 H113       23.4646    1.7259  -11.2899 H         1 UNK         0.0806 
    114 H114       23.0996    1.8527   -9.5767 H         1 UNK         0.0806 
    115 H115       27.0440    0.7778  -10.0201 H         1 UNK         0.3000 
    116 H116       28.0435    1.2318  -12.7945 H         1 UNK         0.0850 
    117 H117       29.2998   -0.8797  -12.3912 H         1 UNK         0.0810 
    118 H118       27.5782   -1.1307  -12.1522 H         1 UNK         0.0810 
    119 H119       28.6509   -0.9870  -10.7607 H         1 UNK         0.0810 
    120 H120       28.8346    1.5327   -9.3869 H         1 UNK         0.3040 
    121 H121       30.3764    2.5547   -8.1856 H         1 UNK         0.0766 
    122 H122       31.7230    4.4214   -9.0544 H         1 UNK         0.0812 
    123 H123       30.0789    4.5530   -9.6592 H         1 UNK         0.0812 
    124 H124       31.3677    3.9720  -10.7141 H         1 UNK         0.0812 
    125 H125       30.7672    0.0036   -8.8361 H         1 UNK         0.3205 
    126 H126       33.0879   -0.7828  -10.1180 H         1 UNK         0.0754 
    127 H127       32.7488   -2.9534   -8.9082 H         1 UNK         0.0769 
    128 H128       31.2425   -2.3221   -9.5508 H         1 UNK         0.0769 
    129 H129       31.6001   -2.1752   -7.8309 H         1 UNK         0.0769 
    130 H130       32.8521    0.3475   -6.7686 H         1 UNK         0.2981 
    131 H131       35.6658   -0.3542   -6.2104 H         1 UNK         0.0541 
    132 H132       35.5844    3.3586   -7.6010 H         1 UNK         0.3459 
    133 H133       34.3880    2.1694   -8.0488 H         1 UNK         0.3459 
    134 H134       33.5997    0.9574   -4.3906 H         1 UNK         0.0612 
    135 H135       35.2356    0.5678   -3.9285 H         1 UNK         0.0612 
    136 H136       31.7566   -0.4469   -4.0304 H         1 UNK         0.0624 
    137 H137       32.3724   -0.8112   -2.4333 H         1 UNK         0.0624 
@<TRIPOS>BOND
     1    1    2 1    
     2    1   72 1    
     3    1   73 1    
     4    1   74 1    
     5    2    3 2    
     6    2    4 am   BACKBONE|DICT|INTERRES
     7    4    5 1    
     8    4   75 1    
     9    5    6 1    
    10    5   35 1    
    11    5   76 1    
    12    6    7 1    
    13    6   77 1    
    14    6   78 1    
    15    7    8 1    
    16    8    9 1    
    17    8   79 1    
    18    8   80 1    
    19    9   10 ar   
    20    9   14 ar   
    21   10   11 ar   
    22   10   81 1    
    23   11   12 ar   
    24   11   71 1    
    25   12   13 ar   
    26   12   82 1    
    27   13   14 ar   
    28   13   15 1    
    29   14   83 1    
    30   15   16 1    
    31   15   84 1    
    32   15   85 1    
    33   16   17 1    
    34   17   18 1    
    35   17   86 1    
    36   17   87 1    
    37   18   19 1    
    38   18   37 1    
    39   18   88 1    
    40   19   20 am   BACKBONE|DICT|INTERRES
    41   19   89 1    
    42   20   21 2    
    43   20   22 1    
    44   22   23 1    
    45   22   24 1    
    46   22   90 1    
    47   23   91 1    
    48   23   92 1    
    49   23   93 1    
    50   24   25 am   BACKBONE|DICT|INTERRES
    51   24   94 1    
    52   25   26 2    
    53   25   27 1    
    54   27   28 1    
    55   27   29 1    
    56   27   95 1    
    57   28   96 1    
    58   28   97 1    
    59   28   98 1    
    60   29   30 am   BACKBONE|DICT|INTERRES
    61   29   99 1    
    62   30   31 2    
    63   30   32 1    
    64   32   33 1    
    65   32   34 1    
    66   32  100 1    
    67   33  101 1    
    68   33  102 1    
    69   33  103 1    
    70   34   35 am   BACKBONE|DICT|INTERRES
    71   34  104 1    
    72   35   36 2    
    73   37   38 2    
    74   37   39 am   BACKBONE|DICT|INTERRES
    75   39   40 1    
    76   39  105 1    
    77   40   41 1    
    78   40   42 1    
    79   40  106 1    
    80   41  107 1    
    81   41  108 1    
    82   41  109 1    
    83   42   43 2    
    84   42   44 am   BACKBONE|DICT|INTERRES
    85   44   45 1    
    86   44  110 1    
    87   45   46 1    
    88   45   47 1    
    89   45  111 1    
    90   46  112 1    
    91   46  113 1    
    92   46  114 1    
    93   47   48 2    
    94   47   49 am   BACKBONE|DICT|INTERRES
    95   49   50 1    
    96   49  115 1    
    97   50   51 1    
    98   50   52 1    
    99   50  116 1    
   100   51  117 1    
   101   51  118 1    
   102   51  119 1    
   103   52   53 2    
   104   52   54 am   BACKBONE|DICT|INTERRES
   105   54   55 1    
   106   54  120 1    
   107   55   56 1    
   108   55   57 1    
   109   55  121 1    
   110   56  122 1    
   111   56  123 1    
   112   56  124 1    
   113   57   58 2    
   114   57   59 am   BACKBONE|DICT|INTERRES
   115   59   60 1    
   116   59  125 1    
   117   60   61 1    
   118   60   62 1    
   119   60  126 1    
   120   61  127 1    
   121   61  128 1    
   122   61  129 1    
   123   62   63 2    
   124   62   64 am   BACKBONE|DICT|INTERRES
   125   64   65 1    
   126   64  130 1    
   127   65   66 1    
   128   65   69 1    
   129   65  131 1    
   130   66   67 am   BACKBONE|DICT|INTERRES
   131   66   68 2    
   132   67  132 1    
   133   67  133 1    
   134   69   70 1    
   135   69  134 1    
   136   69  135 1    
   137   70   71 1    
   138   71  136 1    
   139   71  137 1    
@<TRIPOS>SUBSTRUCTURE
     1 UNK         1 GROUP             0       ****    0 ROOT    
