@<TRIPOS>MOLECULE
3R137
137   139    1
SMALL
USER_CHARGES


@<TRIPOS>ATOM
      1 CA         23.9540   -6.1998   -5.6100 C.3       0 UNK        -0.2020 
      2 C          25.0581   -5.4040   -4.9317 C.2       0 UNK         0.4855 
      3 O          25.4356   -4.3436   -5.4294 O.2       0 UNK        -0.5197 
      4 N          25.5631   -5.8972   -3.7908 N.am      1 UNK        -0.4892 
      5 CA         26.6432   -5.3006   -2.9898 C.3       1 UNK         0.0835 
      6 C6         28.0211   -5.4098   -3.6994 C.3       12 UNK        -0.0855 
      7 S7         29.4231   -5.4424   -2.5315 S.3       12 UNK        -0.2931 
      8 C8         30.7093   -4.5262   -3.4574 C.3       12 UNK         0.0378 
      9 C9         30.8317   -3.0271   -3.1627 C.ar      12 UNK        -0.0802 
     10 C10        31.7254   -2.2767   -3.9344 C.ar      12 UNK        -0.0944 
     11 C11        31.9288   -0.9163   -3.6829 C.ar      12 UNK        -0.0787 
     12 C12        31.2222   -0.2938   -2.6517 C.ar      12 UNK        -0.0862 
     13 C13        30.3265   -1.0245   -1.8676 C.ar      12 UNK        -0.0733 
     14 C14        30.1354   -2.3865   -2.1280 C.ar      12 UNK        -0.0832 
     15 C15        29.6052   -0.3618   -0.7016 C.3       12 UNK         0.0240 
     16 S16        27.8040   -0.3291   -0.9436 S.3       12 UNK        -0.2522 
     17 C17        27.5222    1.2890   -1.7319 C.3       12 UNK        -0.0967 
     18 CA         27.9912    1.4166   -3.2056 C.3       5 UNK         0.0660 
     19 N          27.5910    0.2797   -4.0428 N.am      5 UNK        -0.4015 
     20 C          27.8825    0.1351   -5.3449 C.2       4 UNK         0.4946 
     21 O          28.5594    0.9287   -5.9973 O.2       4 UNK        -0.5353 
     22 CA         27.2606   -1.0626   -6.0776 C.3       4 UNK         0.0277 
     23 CB         28.2267   -2.2538   -6.0312 C.3       4 UNK        -0.1981 
     24 N          25.9384   -1.4513   -5.5716 N.am      4 UNK        -0.4209 
     25 C          24.8710   -0.6376   -5.5024 C.2       3 UNK         0.4942 
     26 O          24.8891    0.5474   -5.8385 O.2       3 UNK        -0.5208 
     27 CA         23.5805   -1.2217   -4.9117 C.3       3 UNK         0.0250 
     28 CB         22.8231   -2.0614   -5.9528 C.3       3 UNK        -0.1990 
     29 N          23.8499   -2.0167   -3.7135 N.am      3 UNK        -0.4232 
     30 C          24.1890   -1.4910   -2.5268 C.2       2 UNK         0.4993 
     31 O          24.2245   -0.2810   -2.3013 O.2       2 UNK        -0.5286 
     32 CA         24.5574   -2.4743   -1.4006 C.3       2 UNK         0.0209 
     33 CB         23.3353   -2.7555   -0.5115 C.3       2 UNK        -0.1931 
     34 N          25.1134   -3.7459   -1.8770 N.am      2 UNK        -0.4546 
     35 C          26.2773   -3.8698   -2.5327 C.2       1 UNK         0.5154 
     36 O          26.9903   -2.9122   -2.8283 O.2       1 UNK        -0.5181 
     37 C          27.5154    2.7764   -3.7627 C.2       5 UNK         0.5014 
     38 O          28.2319    3.7686   -3.6198 O.2       5 UNK        -0.5248 
     39 N          26.3173    2.7997   -4.3642 N.am      6 UNK        -0.4434 
     40 CA         25.7135    3.9878   -4.9645 C.3       6 UNK         0.0363 
     41 CB         24.2066    3.9970   -4.6581 C.3       6 UNK        -0.1936 
     42 C          25.9508    4.0328   -6.4801 C.2       6 UNK         0.5081 
     43 O          26.2385    5.1042   -7.0141 O.2       6 UNK        -0.5248 
     44 N          25.8048    2.8819   -7.1507 N.am      7 UNK        -0.4718 
     45 CA         25.8730    2.7596   -8.6078 C.3       7 UNK         0.0273 
     46 CB         25.2165    1.4342   -9.0297 C.3       7 UNK        -0.1935 
     47 C          27.2939    2.8528   -9.1868 C.2       7 UNK         0.5018 
     48 O          27.4241    3.2091  -10.3586 O.2       7 UNK        -0.5186 
     49 N          28.3146    2.5016   -8.3865 N.am      8 UNK        -0.4240 
     50 CA         29.7205    2.3247   -8.7773 C.3       8 UNK         0.0235 
     51 CB         30.3693    3.6689   -9.1703 C.3       8 UNK        -0.2000 
     52 C          29.8637    1.2341   -9.8570 C.2       8 UNK         0.4941 
     53 O          30.4722    1.4634  -10.9034 O.2       8 UNK        -0.5273 
     54 N          29.2499    0.0717   -9.5874 N.am      9 UNK        -0.4262 
     55 CA         29.1404   -1.0655  -10.5100 C.3       9 UNK         0.0264 
     56 CB         28.1161   -2.0674   -9.9515 C.3       9 UNK        -0.1955 
     57 C          30.4774   -1.7700  -10.8084 C.2       9 UNK         0.5031 
     58 O          30.5976   -2.4232  -11.8462 O.2       9 UNK        -0.5390 
     59 N          31.4473   -1.6225   -9.9023 N.am      10 UNK        -0.4204 
     60 CA         32.8242   -2.0797  -10.0358 C.3       10 UNK         0.0237 
     61 CB         32.9841   -3.4600   -9.3622 C.3       10 UNK        -0.1985 
     62 C          33.6918   -0.9639   -9.4432 C.2       10 UNK         0.4970 
     63 O          33.7782    0.1052  -10.0478 O.2       10 UNK        -0.4914 
     64 N          34.2580   -1.2024   -8.2545 N.am      11 UNK        -0.4285 
     65 CA         34.9036   -0.1971   -7.3914 C.3       11 UNK         0.1007 
     66 C          36.2362    0.3982   -7.9407 C.2       11 UNK         0.5703 
     67 N          36.8783   -0.2206   -8.9245 N.am      11 UNK        -0.7361 
     68 O          36.7181    1.4150   -7.4464 O.2       11 UNK        -0.4986 
     69 C69        33.9083    0.8986   -6.8965 C.3       12 UNK        -0.0947 
     70 S70        32.3764    0.2131   -6.1732 S.3       12 UNK        -0.2240 
     71 C71        32.9566   -0.1371   -4.4877 C.3       12 UNK         0.0194 
     72 H72        24.2552   -6.4663   -6.6228 H         1 UNK         0.0906 
     73 H73        23.7216   -7.1187   -5.0722 H         1 UNK         0.0906 
     74 H74        23.0449   -5.6021   -5.6717 H         1 UNK         0.0906 
     75 H75        25.1940   -6.7676   -3.4314 H         1 UNK         0.3140 
     76 H76        26.6940   -5.9000   -2.0789 H         1 UNK         0.1085 
     77 H77        28.1477   -4.6225   -4.4399 H         1 UNK         0.0836 
     78 H78        28.0712   -6.3428   -4.2630 H         1 UNK         0.0836 
     79 H79        30.5574   -4.6755   -4.5276 H         1 UNK         0.0731 
     80 H80        31.6696   -4.9880   -3.2236 H         1 UNK         0.0731 
     81 H81        32.2842   -2.7573   -4.7261 H         1 UNK         0.1312 
     82 H82        31.3879    0.7547   -2.4449 H         1 UNK         0.1406 
     83 H83        29.4419   -2.9377   -1.5094 H         1 UNK         0.1631 
     84 H84        29.9749    0.6496   -0.5265 H         1 UNK         0.0717 
     85 H85        29.8215   -0.9257    0.2067 H         1 UNK         0.0717 
     86 H86        26.4477    1.4742   -1.6624 H         1 UNK         0.0934 
     87 H87        27.9944    2.0578   -1.1167 H         1 UNK         0.0934 
     88 H88        29.0814    1.4371   -3.2165 H         1 UNK         0.0739 
     89 H89        27.0777   -0.4589   -3.5782 H         1 UNK         0.3093 
     90 H90        27.1238   -0.7772   -7.1214 H         1 UNK         0.0818 
     91 H91        29.1572   -2.0210   -6.5508 H         1 UNK         0.0819 
     92 H92        28.4937   -2.4998   -5.0038 H         1 UNK         0.0819 
     93 H93        27.8003   -3.1413   -6.4990 H         1 UNK         0.0819 
     94 H94        25.8274   -2.4243   -5.2960 H         1 UNK         0.3041 
     95 H95        22.9381   -0.3848   -4.6283 H         1 UNK         0.0784 
     96 H96        22.5716   -1.4576   -6.8259 H         1 UNK         0.0793 
     97 H97        23.4113   -2.9082   -6.3056 H         1 UNK         0.0793 
     98 H98        21.8879   -2.4475   -5.5469 H         1 UNK         0.0793 
     99 H99        23.8832   -3.0196   -3.8235 H         1 UNK         0.3024 
    100 H100       25.3205   -1.9876   -0.7896 H         1 UNK         0.1171 
    101 H101       23.6017   -3.3732    0.3464 H         1 UNK         0.0786 
    102 H102       22.9157   -1.8271   -0.1211 H         1 UNK         0.0786 
    103 H103       22.5431   -3.2651   -1.0616 H         1 UNK         0.0786 
    104 H104       24.5684   -4.5776   -1.6997 H         1 UNK         0.2977 
    105 H105       25.8157    1.9273   -4.4873 H         1 UNK         0.3127 
    106 H106       26.1488    4.8904   -4.5299 H         1 UNK         0.0770 
    107 H107       23.7047    3.1151   -5.0591 H         1 UNK         0.0814 
    108 H108       23.7253    4.8735   -5.0939 H         1 UNK         0.0814 
    109 H109       24.0221    4.0265   -3.5842 H         1 UNK         0.0814 
    110 H110       25.5299    2.0448   -6.6393 H         1 UNK         0.2983 
    111 H111       25.2935    3.5771   -9.0429 H         1 UNK         0.0947 
    112 H112       25.2101    1.3280  -10.1154 H         1 UNK         0.0806 
    113 H113       24.1810    1.3796   -8.6930 H         1 UNK         0.0806 
    114 H114       25.7454    0.5731   -8.6213 H         1 UNK         0.0806 
    115 H115       28.1002    2.1954   -7.4410 H         1 UNK         0.3000 
    116 H116       30.2448    1.9558   -7.8942 H         1 UNK         0.0850 
    117 H117       31.4372    3.5436   -9.3535 H         1 UNK         0.0810 
    118 H118       30.2604    4.4073   -8.3761 H         1 UNK         0.0810 
    119 H119       29.9317    4.0846  -10.0782 H         1 UNK         0.0810 
    120 H120       28.7763   -0.0140   -8.7001 H         1 UNK         0.3040 
    121 H121       28.7596   -0.6826  -11.4593 H         1 UNK         0.0766 
    122 H122       27.1433   -1.6004   -9.7957 H         1 UNK         0.0812 
    123 H123       28.4432   -2.4941   -9.0031 H         1 UNK         0.0812 
    124 H124       27.9668   -2.8968  -10.6443 H         1 UNK         0.0812 
    125 H125       31.2622   -1.0244   -9.1091 H         1 UNK         0.3205 
    126 H126       33.0926   -2.1670  -11.0909 H         1 UNK         0.0754 
    127 H127       34.0198   -3.8007   -9.3977 H         1 UNK         0.0769 
    128 H128       32.3855   -4.2115   -9.8779 H         1 UNK         0.0769 
    129 H129       32.6644   -3.4517   -8.3193 H         1 UNK         0.0769 
    130 H130       34.1498   -2.1196   -7.8479 H         1 UNK         0.2981 
    131 H131       35.2193   -0.7554   -6.5103 H         1 UNK         0.0541 
    132 H132       36.4982   -1.0586   -9.3340 H         1 UNK         0.3459 
    133 H133       37.7450    0.1629   -9.2671 H         1 UNK         0.3459 
    134 H134       33.6244    1.5540   -7.7213 H         1 UNK         0.0612 
    135 H135       34.3810    1.5422   -6.1525 H         1 UNK         0.0612 
    136 H136       33.2031    0.8041   -3.9938 H         1 UNK         0.0624 
    137 H137       33.8811   -0.7138   -4.5312 H         1 UNK         0.0624 
@<TRIPOS>BOND
     1    1    2 1    
     2    1   72 1    
     3    1   73 1    
     4    1   74 1    
     5    2    3 2    
     6    2    4 am   BACKBONE|DICT|INTERRES
     7    4    5 1    
     8    4   75 1    
     9    5    6 1    
    10    5   35 1    
    11    5   76 1    
    12    6    7 1    
    13    6   77 1    
    14    6   78 1    
    15    7    8 1    
    16    8    9 1    
    17    8   79 1    
    18    8   80 1    
    19    9   10 ar   
    20    9   14 ar   
    21   10   11 ar   
    22   10   81 1    
    23   11   12 ar   
    24   11   71 1    
    25   12   13 ar   
    26   12   82 1    
    27   13   14 ar   
    28   13   15 1    
    29   14   83 1    
    30   15   16 1    
    31   15   84 1    
    32   15   85 1    
    33   16   17 1    
    34   17   18 1    
    35   17   86 1    
    36   17   87 1    
    37   18   19 1    
    38   18   37 1    
    39   18   88 1    
    40   19   20 am   BACKBONE|DICT|INTERRES
    41   19   89 1    
    42   20   21 2    
    43   20   22 1    
    44   22   23 1    
    45   22   24 1    
    46   22   90 1    
    47   23   91 1    
    48   23   92 1    
    49   23   93 1    
    50   24   25 am   BACKBONE|DICT|INTERRES
    51   24   94 1    
    52   25   26 2    
    53   25   27 1    
    54   27   28 1    
    55   27   29 1    
    56   27   95 1    
    57   28   96 1    
    58   28   97 1    
    59   28   98 1    
    60   29   30 am   BACKBONE|DICT|INTERRES
    61   29   99 1    
    62   30   31 2    
    63   30   32 1    
    64   32   33 1    
    65   32   34 1    
    66   32  100 1    
    67   33  101 1    
    68   33  102 1    
    69   33  103 1    
    70   34   35 am   BACKBONE|DICT|INTERRES
    71   34  104 1    
    72   35   36 2    
    73   37   38 2    
    74   37   39 am   BACKBONE|DICT|INTERRES
    75   39   40 1    
    76   39  105 1    
    77   40   41 1    
    78   40   42 1    
    79   40  106 1    
    80   41  107 1    
    81   41  108 1    
    82   41  109 1    
    83   42   43 2    
    84   42   44 am   BACKBONE|DICT|INTERRES
    85   44   45 1    
    86   44  110 1    
    87   45   46 1    
    88   45   47 1    
    89   45  111 1    
    90   46  112 1    
    91   46  113 1    
    92   46  114 1    
    93   47   48 2    
    94   47   49 am   BACKBONE|DICT|INTERRES
    95   49   50 1    
    96   49  115 1    
    97   50   51 1    
    98   50   52 1    
    99   50  116 1    
   100   51  117 1    
   101   51  118 1    
   102   51  119 1    
   103   52   53 2    
   104   52   54 am   BACKBONE|DICT|INTERRES
   105   54   55 1    
   106   54  120 1    
   107   55   56 1    
   108   55   57 1    
   109   55  121 1    
   110   56  122 1    
   111   56  123 1    
   112   56  124 1    
   113   57   58 2    
   114   57   59 am   BACKBONE|DICT|INTERRES
   115   59   60 1    
   116   59  125 1    
   117   60   61 1    
   118   60   62 1    
   119   60  126 1    
   120   61  127 1    
   121   61  128 1    
   122   61  129 1    
   123   62   63 2    
   124   62   64 am   BACKBONE|DICT|INTERRES
   125   64   65 1    
   126   64  130 1    
   127   65   66 1    
   128   65   69 1    
   129   65  131 1    
   130   66   67 am   BACKBONE|DICT|INTERRES
   131   66   68 2    
   132   67  132 1    
   133   67  133 1    
   134   69   70 1    
   135   69  134 1    
   136   69  135 1    
   137   70   71 1    
   138   71  136 1    
   139   71  137 1    
@<TRIPOS>SUBSTRUCTURE
     1 UNK         1 GROUP             0       ****    0 ROOT    
