@<TRIPOS>MOLECULE
3R137
137   139    1
SMALL
USER_CHARGES


@<TRIPOS>ATOM
      1 CA         25.2610   -1.9003    2.3041 C.3       0 UNK        -0.2020 
      2 C          26.7186   -1.7993    1.8797 C.2       0 UNK         0.4855 
      3 O          27.5858   -1.5456    2.7161 O.2       0 UNK        -0.5197 
      4 N          26.9943   -1.9928    0.5873 N.am      1 UNK        -0.4892 
      5 CA         28.3156   -1.9055   -0.0274 C.3       1 UNK         0.0835 
      6 C6         29.1295   -3.2111    0.1841 C.3       12 UNK        -0.0855 
      7 S7         30.8376   -3.1633   -0.4729 S.3       12 UNK        -0.2931 
      8 C8         30.9117   -4.6755   -1.4918 C.3       12 UNK         0.0378 
      9 C9         30.3732   -4.4715   -2.9041 C.ar      12 UNK        -0.0802 
     10 C10        31.2518   -4.2963   -3.9787 C.ar      12 UNK        -0.0944 
     11 C11        30.7638   -4.1717   -5.2841 C.ar      12 UNK        -0.0787 
     12 C12        29.3837   -4.2010   -5.5061 C.ar      12 UNK        -0.0862 
     13 C13        28.4886   -4.3543   -4.4403 C.ar      12 UNK        -0.0733 
     14 C14        28.9977   -4.5043   -3.1478 C.ar      12 UNK        -0.0832 
     15 C15        26.9705   -4.3373   -4.6174 C.3       12 UNK         0.0240 
     16 S16        26.3543   -4.7880   -6.2759 S.3       12 UNK        -0.2522 
     17 C17        26.4321   -3.1949   -7.1623 C.3       12 UNK        -0.0967 
     18 CA         25.0820   -2.4391   -7.0915 C.3       5 UNK         0.0660 
     19 N          24.8747   -1.8624   -5.7652 N.am      5 UNK        -0.4015 
     20 C          23.7648   -1.9914   -5.0274 C.2       4 UNK         0.4946 
     21 O          22.7698   -2.6197   -5.3931 O.2       4 UNK        -0.5353 
     22 CA         23.7490   -1.3295   -3.6355 C.3       4 UNK         0.0277 
     23 CB         23.8241   -2.3973   -2.5308 C.3       4 UNK        -0.1981 
     24 N          24.8299   -0.3578   -3.4459 N.am      4 UNK        -0.4209 
     25 C          24.8200    0.8800   -3.9646 C.2       3 UNK         0.4942 
     26 O          23.8605    1.3466   -4.5797 O.2       3 UNK        -0.5208 
     27 CA         26.0738    1.7576   -3.7809 C.3       3 UNK         0.0250 
     28 CB         25.8072    2.8667   -2.7499 C.3       3 UNK        -0.1990 
     29 N          27.2885    1.0347   -3.3942 N.am      3 UNK        -0.4232 
     30 C          27.9153    0.1103   -4.1348 C.2       2 UNK         0.4993 
     31 O          27.5084   -0.2916   -5.2245 O.2       2 UNK        -0.5286 
     32 CA         29.1870   -0.4979   -3.5207 C.3       2 UNK         0.0209 
     33 CB         30.3638    0.4837   -3.6557 C.3       2 UNK        -0.1931 
     34 N          29.0817   -0.8771   -2.1071 N.am      2 UNK        -0.4546 
     35 C          28.0908   -1.5496   -1.5072 C.2       1 UNK         0.5154 
     36 O          27.0353   -1.8767   -2.0584 O.2       1 UNK        -0.5181 
     37 C          25.0386   -1.3071   -8.1289 C.2       5 UNK         0.5014 
     38 O          25.4357   -0.1784   -7.8311 O.2       5 UNK        -0.5248 
     39 N          24.6097   -1.6452   -9.3540 N.am      6 UNK        -0.4434 
     40 CA         24.5175   -0.7317  -10.5020 C.3       6 UNK         0.0363 
     41 CB         23.8094   -1.4494  -11.6627 C.3       6 UNK        -0.1936 
     42 C          25.8712   -0.1607  -10.9686 C.2       6 UNK         0.5081 
     43 O          25.8925    0.8805  -11.6251 O.2       6 UNK        -0.5248 
     44 N          26.9705   -0.8384  -10.6086 N.am      7 UNK        -0.4718 
     45 CA         28.3498   -0.3816  -10.7894 C.3       7 UNK         0.0273 
     46 CB         29.3003   -1.5220  -10.3918 C.3       7 UNK        -0.1935 
     47 C          28.6771    0.8954   -9.9921 C.2       7 UNK         0.5018 
     48 O          29.4857    1.6986  -10.4619 O.2       7 UNK        -0.5186 
     49 N          28.0350    1.0608   -8.8223 N.am      8 UNK        -0.4240 
     50 CA         28.1106    2.2054   -7.9095 C.3       8 UNK         0.0235 
     51 CB         27.1935    3.3366   -8.4244 C.3       8 UNK        -0.2000 
     52 C          29.5604    2.6452   -7.6307 C.2       8 UNK         0.4941 
     53 O          30.3118    1.8873   -7.0181 O.2       8 UNK        -0.5273 
     54 N          29.9432    3.8317   -8.1233 N.am      9 UNK        -0.4262 
     55 CA         31.2739    4.4301   -7.9897 C.3       9 UNK         0.0264 
     56 CB         31.2759    5.8116   -8.6637 C.3       9 UNK        -0.1955 
     57 C          32.4334    3.5705   -8.5276 C.2       9 UNK         0.5031 
     58 O          33.5495    3.7106   -8.0253 O.2       9 UNK        -0.5390 
     59 N          32.1696    2.6753   -9.4935 N.am      10 UNK        -0.4204 
     60 CA         33.1634    1.7299  -10.0169 C.3       10 UNK         0.0237 
     61 CB         32.6418    1.0817  -11.3085 C.3       10 UNK        -0.1985 
     62 C          33.5910    0.6584   -8.9940 C.2       10 UNK         0.4970 
     63 O          34.6870    0.1136   -9.1307 O.2       10 UNK        -0.4914 
     64 N          32.7502    0.3989   -7.9837 N.am      11 UNK        -0.4285 
     65 CA         33.0764   -0.4257   -6.8113 C.3       11 UNK         0.1007 
     66 C          33.7273    0.3864   -5.6513 C.2       11 UNK         0.5703 
     67 N          33.9598    1.6889   -5.7773 N.am      11 UNK        -0.7361 
     68 O          34.0555   -0.1845   -4.6142 O.2       11 UNK        -0.4986 
     69 C69        31.8395   -1.2298   -6.3329 C.3       12 UNK        -0.0947 
     70 S70        31.3988   -2.5680   -7.4843 S.3       12 UNK        -0.2240 
     71 C71        31.7271   -4.0396   -6.4598 C.3       12 UNK         0.0194 
     72 H72        24.9316   -0.9588    2.7426 H         1 UNK         0.0906 
     73 H73        24.6063   -2.1303    1.4635 H         1 UNK         0.0906 
     74 H74        25.1414   -2.6847    3.0510 H         1 UNK         0.0906 
     75 H75        26.2552   -2.1569   -0.0869 H         1 UNK         0.3140 
     76 H76        28.8537   -1.0744    0.4349 H         1 UNK         0.1085 
     77 H77        28.5877   -4.0665   -0.2178 H         1 UNK         0.0836 
     78 H78        29.2141   -3.4090    1.2537 H         1 UNK         0.0836 
     79 H79        30.3724   -5.4850   -0.9975 H         1 UNK         0.0731 
     80 H80        31.9518   -5.0017   -1.5392 H         1 UNK         0.0731 
     81 H81        32.3184   -4.2793   -3.8005 H         1 UNK         0.1312 
     82 H82        29.0207   -4.0990   -6.5178 H         1 UNK         0.1406 
     83 H83        28.3096   -4.6421   -2.3270 H         1 UNK         0.1631 
     84 H84        26.6042   -3.3491   -4.3422 H         1 UNK         0.0717 
     85 H85        26.5205   -5.0341   -3.9088 H         1 UNK         0.0717 
     86 H86        27.2456   -2.5796   -6.7719 H         1 UNK         0.0934 
     87 H87        26.6983   -3.4269   -8.1954 H         1 UNK         0.0934 
     88 H88        24.2764   -3.1372   -7.3298 H         1 UNK         0.0739 
     89 H89        25.6226   -1.2581   -5.4403 H         1 UNK         0.3093 
     90 H90        22.7941   -0.8092   -3.5338 H         1 UNK         0.0818 
     91 H91        23.8152   -1.9465   -1.5385 H         1 UNK         0.0819 
     92 H92        22.9701   -3.0738   -2.5865 H         1 UNK         0.0819 
     93 H93        24.7235   -3.0074   -2.6171 H         1 UNK         0.0819 
     94 H94        25.6606   -0.6913   -2.9654 H         1 UNK         0.3041 
     95 H95        26.2706    2.2288   -4.7463 H         1 UNK         0.0784 
     96 H96        24.9294    3.4539   -3.0241 H         1 UNK         0.0793 
     97 H97        25.6271    2.4572   -1.7551 H         1 UNK         0.0793 
     98 H98        26.6471    3.5587   -2.6833 H         1 UNK         0.0793 
     99 H99        27.6895    1.2718   -2.4985 H         1 UNK         0.3024 
    100 H100       29.4160   -1.4027   -4.0886 H         1 UNK         0.1171 
    101 H101       31.3157   -0.0098   -3.4583 H         1 UNK         0.0786 
    102 H102       30.4195    0.9089   -4.6560 H         1 UNK         0.0786 
    103 H103       30.2732    1.3225   -2.9648 H         1 UNK         0.0786 
    104 H104       29.9076   -0.6948   -1.5546 H         1 UNK         0.2977 
    105 H105       24.3101   -2.5965   -9.5173 H         1 UNK         0.3127 
    106 H106       23.9017    0.1174  -10.1975 H         1 UNK         0.0770 
    107 H107       24.3683   -2.3239  -11.9985 H         1 UNK         0.0814 
    108 H108       23.6975   -0.7859  -12.5216 H         1 UNK         0.0814 
    109 H109       22.8091   -1.7765  -11.3781 H         1 UNK         0.0814 
    110 H110       26.8427   -1.7004  -10.1010 H         1 UNK         0.2983 
    111 H111       28.4972   -0.1549  -11.8476 H         1 UNK         0.0947 
    112 H112       29.1467   -1.8283   -9.3565 H         1 UNK         0.0806 
    113 H113       30.3440   -1.2235  -10.4869 H         1 UNK         0.0806 
    114 H114       29.1579   -2.3976  -11.0252 H         1 UNK         0.0806 
    115 H115       27.3703    0.3488   -8.5412 H         1 UNK         0.3000 
    116 H116       27.7096    1.8625   -6.9546 H         1 UNK         0.0850 
    117 H117       27.2000    4.1941   -7.7501 H         1 UNK         0.0810 
    118 H118       26.1606    2.9929   -8.4886 H         1 UNK         0.0810 
    119 H119       27.4820    3.6819   -9.4180 H         1 UNK         0.0810 
    120 H120       29.2630    4.3623   -8.6479 H         1 UNK         0.3040 
    121 H121       31.4533    4.5714   -6.9218 H         1 UNK         0.0766 
    122 H122       32.2471    6.2972   -8.5565 H         1 UNK         0.0812 
    123 H123       30.5350    6.4746   -8.2162 H         1 UNK         0.0812 
    124 H124       31.0639    5.7399   -9.7313 H         1 UNK         0.0812 
    125 H125       31.2158    2.5730   -9.8312 H         1 UNK         0.3205 
    126 H126       34.0583    2.3016  -10.2722 H         1 UNK         0.0754 
    127 H127       33.3972    0.4305  -11.7506 H         1 UNK         0.0769 
    128 H128       32.3842    1.8333  -12.0549 H         1 UNK         0.0769 
    129 H129       31.7571    0.4742  -11.1264 H         1 UNK         0.0769 
    130 H130       31.8808    0.9174   -7.9126 H         1 UNK         0.2981 
    131 H131       33.8390   -1.1526   -7.0969 H         1 UNK         0.0541 
    132 H132       34.3910    2.1805   -5.0112 H         1 UNK         0.3459 
    133 H133       33.7349    2.1894   -6.6281 H         1 UNK         0.3459 
    134 H134       32.0034   -1.6581   -5.3430 H         1 UNK         0.0612 
    135 H135       30.9694   -0.5816   -6.2423 H         1 UNK         0.0612 
    136 H136       31.6371   -4.9275   -7.0867 H         1 UNK         0.0624 
    137 H137       32.7626   -4.0069   -6.1174 H         1 UNK         0.0624 
@<TRIPOS>BOND
     1    1    2 1    
     2    1   72 1    
     3    1   73 1    
     4    1   74 1    
     5    2    3 2    
     6    2    4 am   BACKBONE|DICT|INTERRES
     7    4    5 1    
     8    4   75 1    
     9    5    6 1    
    10    5   35 1    
    11    5   76 1    
    12    6    7 1    
    13    6   77 1    
    14    6   78 1    
    15    7    8 1    
    16    8    9 1    
    17    8   79 1    
    18    8   80 1    
    19    9   10 ar   
    20    9   14 ar   
    21   10   11 ar   
    22   10   81 1    
    23   11   12 ar   
    24   11   71 1    
    25   12   13 ar   
    26   12   82 1    
    27   13   14 ar   
    28   13   15 1    
    29   14   83 1    
    30   15   16 1    
    31   15   84 1    
    32   15   85 1    
    33   16   17 1    
    34   17   18 1    
    35   17   86 1    
    36   17   87 1    
    37   18   19 1    
    38   18   37 1    
    39   18   88 1    
    40   19   20 am   BACKBONE|DICT|INTERRES
    41   19   89 1    
    42   20   21 2    
    43   20   22 1    
    44   22   23 1    
    45   22   24 1    
    46   22   90 1    
    47   23   91 1    
    48   23   92 1    
    49   23   93 1    
    50   24   25 am   BACKBONE|DICT|INTERRES
    51   24   94 1    
    52   25   26 2    
    53   25   27 1    
    54   27   28 1    
    55   27   29 1    
    56   27   95 1    
    57   28   96 1    
    58   28   97 1    
    59   28   98 1    
    60   29   30 am   BACKBONE|DICT|INTERRES
    61   29   99 1    
    62   30   31 2    
    63   30   32 1    
    64   32   33 1    
    65   32   34 1    
    66   32  100 1    
    67   33  101 1    
    68   33  102 1    
    69   33  103 1    
    70   34   35 am   BACKBONE|DICT|INTERRES
    71   34  104 1    
    72   35   36 2    
    73   37   38 2    
    74   37   39 am   BACKBONE|DICT|INTERRES
    75   39   40 1    
    76   39  105 1    
    77   40   41 1    
    78   40   42 1    
    79   40  106 1    
    80   41  107 1    
    81   41  108 1    
    82   41  109 1    
    83   42   43 2    
    84   42   44 am   BACKBONE|DICT|INTERRES
    85   44   45 1    
    86   44  110 1    
    87   45   46 1    
    88   45   47 1    
    89   45  111 1    
    90   46  112 1    
    91   46  113 1    
    92   46  114 1    
    93   47   48 2    
    94   47   49 am   BACKBONE|DICT|INTERRES
    95   49   50 1    
    96   49  115 1    
    97   50   51 1    
    98   50   52 1    
    99   50  116 1    
   100   51  117 1    
   101   51  118 1    
   102   51  119 1    
   103   52   53 2    
   104   52   54 am   BACKBONE|DICT|INTERRES
   105   54   55 1    
   106   54  120 1    
   107   55   56 1    
   108   55   57 1    
   109   55  121 1    
   110   56  122 1    
   111   56  123 1    
   112   56  124 1    
   113   57   58 2    
   114   57   59 am   BACKBONE|DICT|INTERRES
   115   59   60 1    
   116   59  125 1    
   117   60   61 1    
   118   60   62 1    
   119   60  126 1    
   120   61  127 1    
   121   61  128 1    
   122   61  129 1    
   123   62   63 2    
   124   62   64 am   BACKBONE|DICT|INTERRES
   125   64   65 1    
   126   64  130 1    
   127   65   66 1    
   128   65   69 1    
   129   65  131 1    
   130   66   67 am   BACKBONE|DICT|INTERRES
   131   66   68 2    
   132   67  132 1    
   133   67  133 1    
   134   69   70 1    
   135   69  134 1    
   136   69  135 1    
   137   70   71 1    
   138   71  136 1    
   139   71  137 1    
@<TRIPOS>SUBSTRUCTURE
     1 UNK         1 GROUP             0       ****    0 ROOT    
