@<TRIPOS>MOLECULE
3R137
137   139    1
SMALL
USER_CHARGES


@<TRIPOS>ATOM
      1 CA         24.6392   -1.6955    1.9128 C.3       0 UNK        -0.2020 
      2 C          24.4936   -2.2740    0.5082 C.2       0 UNK         0.4855 
      3 O          23.3740   -2.3887    0.0153 O.2       0 UNK        -0.5197 
      4 N          25.5828   -2.6442   -0.1802 N.am      1 UNK        -0.4892 
      5 CA         26.9875   -2.5547    0.2487 C.3       1 UNK         0.0835 
      6 C6         27.8203   -3.7205   -0.3427 C.3       12 UNK        -0.0855 
      7 S7         27.9558   -3.7122   -2.1676 S.3       12 UNK        -0.2931 
      8 C8         29.6945   -4.2228   -2.3487 C.3       12 UNK         0.0378 
      9 C9         30.1562   -4.2146   -3.7988 C.ar      12 UNK        -0.0802 
     10 C10        31.1888   -3.3637   -4.2015 C.ar      12 UNK        -0.0944 
     11 C11        31.6477   -3.3694   -5.5230 C.ar      12 UNK        -0.0787 
     12 C12        31.0630   -4.2459   -6.4456 C.ar      12 UNK        -0.0862 
     13 C13        30.0392   -5.1157   -6.0514 C.ar      12 UNK        -0.0733 
     14 C14        29.5896   -5.0916   -4.7272 C.ar      12 UNK        -0.0832 
     15 C15        29.4592   -6.1299   -7.0314 C.3       12 UNK         0.0240 
     16 S16        28.4146   -5.3828   -8.3235 S.3       12 UNK        -0.2522 
     17 C17        27.0433   -4.6532   -7.3608 C.3       12 UNK        -0.0967 
     18 CA         26.7074   -3.2092   -7.8089 C.3       5 UNK         0.0660 
     19 N          25.4235   -2.7581   -7.2654 N.am      5 UNK        -0.4015 
     20 C          24.8343   -1.5867   -7.5441 C.2       4 UNK         0.4946 
     21 O          25.2953   -0.7564   -8.3280 O.2       4 UNK        -0.5353 
     22 CA         23.5399   -1.2452   -6.7861 C.3       4 UNK         0.0277 
     23 CB         22.8453   -2.4658   -6.1387 C.3       4 UNK        -0.1981 
     24 N          23.7683   -0.1923   -5.7882 N.am      4 UNK        -0.4209 
     25 C          24.6406   -0.2275   -4.7700 C.2       3 UNK         0.4942 
     26 O          25.4180   -1.1645   -4.5556 O.2       3 UNK        -0.5208 
     27 CA         24.6425    0.9860   -3.8296 C.3       3 UNK         0.0250 
     28 CB         23.2634    1.2002   -3.1718 C.3       3 UNK        -0.1990 
     29 N          25.6488    0.7495   -2.8017 N.am      3 UNK        -0.4232 
     30 C          26.2192    1.6612   -2.0057 C.2       2 UNK         0.4993 
     31 O          25.9760    2.8670   -2.0689 O.2       2 UNK        -0.5286 
     32 CA         27.1969    1.1257   -0.9431 C.3       2 UNK         0.0209 
     33 CB         27.2805    2.0343    0.3011 C.3       2 UNK        -0.1931 
     34 N          26.8147   -0.2324   -0.5518 N.am      2 UNK        -0.4546 
     35 C          27.6185   -1.1688   -0.0343 C.2       1 UNK         0.5154 
     36 O          28.8076   -0.9756    0.2226 O.2       1 UNK        -0.5181 
     37 C          27.8561   -2.2239   -7.5064 C.2       5 UNK         0.5014 
     38 O          28.6565   -1.9509   -8.4009 O.2       5 UNK        -0.5248 
     39 N          27.8890   -1.6593   -6.2892 N.am      6 UNK        -0.4434 
     40 CA         28.9121   -0.6904   -5.8910 C.3       6 UNK         0.0363 
     41 CB         28.8707   -0.4674   -4.3730 C.3       6 UNK        -0.1936 
     42 C          28.8000    0.6463   -6.6407 C.2       6 UNK         0.5081 
     43 O          29.8239    1.2631   -6.9377 O.2       6 UNK        -0.5248 
     44 N          27.5632    1.0524   -6.9603 N.am      7 UNK        -0.4718 
     45 CA         27.2683    2.2359   -7.7675 C.3       7 UNK         0.0273 
     46 CB         25.8059    2.6607   -7.5589 C.3       7 UNK        -0.1935 
     47 C          27.5700    1.9984   -9.2549 C.2       7 UNK         0.5018 
     48 O          28.1376    2.8805   -9.8979 O.2       7 UNK        -0.5186 
     49 N          27.2182    0.8077   -9.7633 N.am      8 UNK        -0.4240 
     50 CA         27.4967    0.3648  -11.1324 C.3       8 UNK         0.0235 
     51 CB         26.7589   -0.9544  -11.4115 C.3       8 UNK        -0.2000 
     52 C          29.0011    0.2209  -11.4174 C.2       8 UNK         0.4941 
     53 O          29.4622    0.6721  -12.4665 O.2       8 UNK        -0.5273 
     54 N          29.7414   -0.3763  -10.4723 N.am      9 UNK        -0.4262 
     55 CA         31.2022   -0.4862  -10.5077 C.3       9 UNK         0.0264 
     56 CB         31.6546   -1.5293   -9.4728 C.3       9 UNK        -0.1955 
     57 C          31.9160    0.8526  -10.2498 C.2       9 UNK         0.5031 
     58 O          33.0601    1.0096  -10.6784 O.2       9 UNK        -0.5390 
     59 N          31.2406    1.7710   -9.5412 N.am      10 UNK        -0.4204 
     60 CA         31.7187    3.0753   -9.0684 C.3       10 UNK         0.0237 
     61 CB         31.9821    4.0307  -10.2516 C.3       10 UNK        -0.1985 
     62 C          32.9168    2.9485   -8.1067 C.2       10 UNK         0.4970 
     63 O          33.8301    3.7755   -8.1452 O.2       10 UNK        -0.4914 
     64 N          32.8931    1.9041   -7.2693 N.am      11 UNK        -0.4285 
     65 CA         33.9477    1.5795   -6.2978 C.3       11 UNK         0.1007 
     66 C          33.8541    2.3655   -4.9573 C.2       11 UNK         0.5703 
     67 N          32.7855    3.1100   -4.6957 N.am      11 UNK        -0.7361 
     68 O          34.7787    2.3143   -4.1493 O.2       11 UNK        -0.4986 
     69 C69        34.0735    0.0466   -6.0878 C.3       12 UNK        -0.0947 
     70 S70        32.5448   -0.7286   -5.4701 S.3       12 UNK        -0.2240 
     71 C71        32.8085   -2.4695   -5.9371 C.3       12 UNK         0.0194 
     72 H72        24.9882   -2.4587    2.6078 H         1 UNK         0.0906 
     73 H73        25.3341   -0.8568    1.9313 H         1 UNK         0.0906 
     74 H74        23.6780   -1.3321    2.2762 H         1 UNK         0.0906 
     75 H75        25.4581   -3.0303   -1.1068 H         1 UNK         0.3140 
     76 H76        27.0287   -2.6750    1.3327 H         1 UNK         0.1085 
     77 H77        28.8177   -3.7180    0.1012 H         1 UNK         0.0836 
     78 H78        27.3785   -4.6728   -0.0446 H         1 UNK         0.0836 
     79 H79        29.8198   -5.2260   -1.9386 H         1 UNK         0.0731 
     80 H80        30.3218   -3.5615   -1.7485 H         1 UNK         0.0731 
     81 H81        31.6460   -2.6974   -3.4828 H         1 UNK         0.1312 
     82 H82        31.4162   -4.2697   -7.4675 H         1 UNK         0.1406 
     83 H83        28.8058   -5.7657   -4.4087 H         1 UNK         0.1631 
     84 H84        28.8779   -6.8887   -6.5053 H         1 UNK         0.0717 
     85 H85        30.2796   -6.6624   -7.5146 H         1 UNK         0.0717 
     86 H86        26.1751   -5.2982   -7.5054 H         1 UNK         0.0934 
     87 H87        27.2617   -4.6839   -6.2926 H         1 UNK         0.0934 
     88 H88        26.5819   -3.2224   -8.8934 H         1 UNK         0.0739 
     89 H89        24.9892   -3.3525   -6.5751 H         1 UNK         0.3093 
     90 H90        22.8554   -0.8321   -7.5287 H         1 UNK         0.0818 
     91 H91        22.6514   -3.2471   -6.8750 H         1 UNK         0.0819 
     92 H92        23.4331   -2.9043   -5.3316 H         1 UNK         0.0819 
     93 H93        21.8805   -2.1824   -5.7179 H         1 UNK         0.0819 
     94 H94        23.1987    0.6350   -5.8990 H         1 UNK         0.3041 
     95 H95        24.9221    1.8688   -4.4072 H         1 UNK         0.0784 
     96 H96        23.2784    2.0418   -2.4790 H         1 UNK         0.0793 
     97 H97        22.4938    1.4168   -3.9131 H         1 UNK         0.0793 
     98 H98        22.9437    0.3181   -2.6150 H         1 UNK         0.0793 
     99 H99        25.9638   -0.2136   -2.7751 H         1 UNK         0.3024 
    100 H100       28.1812    1.0908   -1.4160 H         1 UNK         0.1171 
    101 H101       27.5991    3.0422    0.0321 H         1 UNK         0.0786 
    102 H102       26.3148    2.1176    0.8010 H         1 UNK         0.0786 
    103 H103       28.0014    1.6553    1.0256 H         1 UNK         0.0786 
    104 H104       25.8497   -0.4843   -0.7180 H         1 UNK         0.2977 
    105 H105       27.1580   -1.8661   -5.6171 H         1 UNK         0.3127 
    106 H106       29.8757   -1.1282   -6.1476 H         1 UNK         0.0770 
    107 H107       27.9334   -0.0119   -4.0616 H         1 UNK         0.0814 
    108 H108       29.6786    0.1937   -4.0567 H         1 UNK         0.0814 
    109 H109       28.9888   -1.4039   -3.8299 H         1 UNK         0.0814 
    110 H110       26.7885    0.4439   -6.7381 H         1 UNK         0.2983 
    111 H111       27.9088    3.0530   -7.4272 H         1 UNK         0.0947 
    112 H112       25.6138    2.9175   -6.5177 H         1 UNK         0.0806 
    113 H113       25.1061    1.8765   -7.8487 H         1 UNK         0.0806 
    114 H114       25.5697    3.5427   -8.1558 H         1 UNK         0.0806 
    115 H115       26.6927    0.1655   -9.1735 H         1 UNK         0.3000 
    116 H116       27.1024    1.1249  -11.8102 H         1 UNK         0.0850 
    117 H117       26.9120   -1.2762  -12.4424 H         1 UNK         0.0810 
    118 H118       25.6846   -0.8481  -11.2597 H         1 UNK         0.0810 
    119 H119       27.1099   -1.7576  -10.7635 H         1 UNK         0.0810 
    120 H120       29.2737   -0.8019   -9.6715 H         1 UNK         0.3040 
    121 H121       31.4967   -0.8347  -11.4998 H         1 UNK         0.0766 
    122 H122       31.3706   -1.2372   -8.4607 H         1 UNK         0.0812 
    123 H123       32.7383   -1.6527   -9.4870 H         1 UNK         0.0812 
    124 H124       31.2123   -2.5055   -9.6728 H         1 UNK         0.0812 
    125 H125       30.3224    1.5110   -9.2048 H         1 UNK         0.3205 
    126 H126       30.9029    3.4982   -8.4802 H         1 UNK         0.0754 
    127 H127       32.2063    5.0380   -9.8988 H         1 UNK         0.0769 
    128 H128       31.1094    4.1024  -10.9011 H         1 UNK         0.0769 
    129 H129       32.8267    3.7028  -10.8584 H         1 UNK         0.0769 
    130 H130       32.0690    1.3162   -7.2451 H         1 UNK         0.2981 
    131 H131       34.8959    1.8967   -6.7359 H         1 UNK         0.0541 
    132 H132       32.0185    3.1444   -5.3477 H         1 UNK         0.3459 
    133 H133       32.7390    3.6212   -3.8288 H         1 UNK         0.3459 
    134 H134       34.8879   -0.1870   -5.3997 H         1 UNK         0.0612 
    135 H135       34.3399   -0.4231   -7.0359 H         1 UNK         0.0612 
    136 H136       33.7208   -2.8305   -5.4605 H         1 UNK         0.0624 
    137 H137       32.9745   -2.5269   -7.0132 H         1 UNK         0.0624 
@<TRIPOS>BOND
     1    1    2 1    
     2    1   72 1    
     3    1   73 1    
     4    1   74 1    
     5    2    3 2    
     6    2    4 am   BACKBONE|DICT|INTERRES
     7    4    5 1    
     8    4   75 1    
     9    5    6 1    
    10    5   35 1    
    11    5   76 1    
    12    6    7 1    
    13    6   77 1    
    14    6   78 1    
    15    7    8 1    
    16    8    9 1    
    17    8   79 1    
    18    8   80 1    
    19    9   10 ar   
    20    9   14 ar   
    21   10   11 ar   
    22   10   81 1    
    23   11   12 ar   
    24   11   71 1    
    25   12   13 ar   
    26   12   82 1    
    27   13   14 ar   
    28   13   15 1    
    29   14   83 1    
    30   15   16 1    
    31   15   84 1    
    32   15   85 1    
    33   16   17 1    
    34   17   18 1    
    35   17   86 1    
    36   17   87 1    
    37   18   19 1    
    38   18   37 1    
    39   18   88 1    
    40   19   20 am   BACKBONE|DICT|INTERRES
    41   19   89 1    
    42   20   21 2    
    43   20   22 1    
    44   22   23 1    
    45   22   24 1    
    46   22   90 1    
    47   23   91 1    
    48   23   92 1    
    49   23   93 1    
    50   24   25 am   BACKBONE|DICT|INTERRES
    51   24   94 1    
    52   25   26 2    
    53   25   27 1    
    54   27   28 1    
    55   27   29 1    
    56   27   95 1    
    57   28   96 1    
    58   28   97 1    
    59   28   98 1    
    60   29   30 am   BACKBONE|DICT|INTERRES
    61   29   99 1    
    62   30   31 2    
    63   30   32 1    
    64   32   33 1    
    65   32   34 1    
    66   32  100 1    
    67   33  101 1    
    68   33  102 1    
    69   33  103 1    
    70   34   35 am   BACKBONE|DICT|INTERRES
    71   34  104 1    
    72   35   36 2    
    73   37   38 2    
    74   37   39 am   BACKBONE|DICT|INTERRES
    75   39   40 1    
    76   39  105 1    
    77   40   41 1    
    78   40   42 1    
    79   40  106 1    
    80   41  107 1    
    81   41  108 1    
    82   41  109 1    
    83   42   43 2    
    84   42   44 am   BACKBONE|DICT|INTERRES
    85   44   45 1    
    86   44  110 1    
    87   45   46 1    
    88   45   47 1    
    89   45  111 1    
    90   46  112 1    
    91   46  113 1    
    92   46  114 1    
    93   47   48 2    
    94   47   49 am   BACKBONE|DICT|INTERRES
    95   49   50 1    
    96   49  115 1    
    97   50   51 1    
    98   50   52 1    
    99   50  116 1    
   100   51  117 1    
   101   51  118 1    
   102   51  119 1    
   103   52   53 2    
   104   52   54 am   BACKBONE|DICT|INTERRES
   105   54   55 1    
   106   54  120 1    
   107   55   56 1    
   108   55   57 1    
   109   55  121 1    
   110   56  122 1    
   111   56  123 1    
   112   56  124 1    
   113   57   58 2    
   114   57   59 am   BACKBONE|DICT|INTERRES
   115   59   60 1    
   116   59  125 1    
   117   60   61 1    
   118   60   62 1    
   119   60  126 1    
   120   61  127 1    
   121   61  128 1    
   122   61  129 1    
   123   62   63 2    
   124   62   64 am   BACKBONE|DICT|INTERRES
   125   64   65 1    
   126   64  130 1    
   127   65   66 1    
   128   65   69 1    
   129   65  131 1    
   130   66   67 am   BACKBONE|DICT|INTERRES
   131   66   68 2    
   132   67  132 1    
   133   67  133 1    
   134   69   70 1    
   135   69  134 1    
   136   69  135 1    
   137   70   71 1    
   138   71  136 1    
   139   71  137 1    
@<TRIPOS>SUBSTRUCTURE
     1 UNK         1 GROUP             0       ****    0 ROOT    
