@<TRIPOS>MOLECULE
3R137
137   139    1
SMALL
USER_CHARGES


@<TRIPOS>ATOM
      1 CA         30.0758   -2.6050   -5.5189 C.3       0 UNK        -0.2020 
      2 C          29.0270   -3.1165   -4.5458 C.2       0 UNK         0.4855 
      3 O          28.0464   -3.7290   -4.9748 O.2       0 UNK        -0.5197 
      4 N          29.2035   -2.8573   -3.2421 N.am      1 UNK        -0.4892 
      5 CA         28.2336   -3.2204   -2.2021 C.3       1 UNK         0.0835 
      6 C6         28.8433   -3.1597   -0.7744 C.3       12 UNK        -0.0855 
      7 S7         29.0577   -1.4912   -0.0569 S.3       12 UNK        -0.2931 
      8 C8         30.8696   -1.3470    0.0745 C.3       12 UNK         0.0378 
      9 C9         31.5113   -1.0974   -1.2810 C.ar      12 UNK        -0.0802 
     10 C10        32.4080   -2.0185   -1.8278 C.ar      12 UNK        -0.0944 
     11 C11        32.9808   -1.7854   -3.0811 C.ar      12 UNK        -0.0787 
     12 C12        32.6473   -0.6242   -3.7864 C.ar      12 UNK        -0.0862 
     13 C13        31.7322    0.2949   -3.2641 C.ar      12 UNK        -0.0733 
     14 C14        31.1955    0.0629   -1.9921 C.ar      12 UNK        -0.0832 
     15 C15        31.3425    1.5096   -4.1106 C.3       12 UNK         0.0240 
     16 S16        29.7611    2.3149   -3.6630 S.3       12 UNK        -0.2522 
     17 C17        28.5464    0.9771   -3.9369 C.3       12 UNK        -0.0967 
     18 CA         27.7890    1.1174   -5.2783 C.3       5 UNK         0.0660 
     19 N          27.3484   -0.1767   -5.8234 N.am      5 UNK        -0.4015 
     20 C          27.0274   -0.3420   -7.1169 C.2       4 UNK         0.4946 
     21 O          27.0405    0.5831   -7.9300 O.2       4 UNK        -0.5353 
     22 CA         26.5680   -1.7243   -7.6015 C.3       4 UNK         0.0277 
     23 CB         27.7198   -2.5424   -8.2155 C.3       4 UNK        -0.1981 
     24 N          25.8779   -2.5158   -6.5809 N.am      4 UNK        -0.4209 
     25 C          24.5607   -2.4260   -6.3477 C.2       3 UNK         0.4942 
     26 O          23.8360   -1.5683   -6.8527 O.2       3 UNK        -0.5208 
     27 CA         23.9394   -3.4933   -5.4327 C.3       3 UNK         0.0250 
     28 CB         24.2798   -4.9195   -5.9035 C.3       3 UNK        -0.1990 
     29 N          24.3538   -3.3263   -4.0441 N.am      3 UNK        -0.4232 
     30 C          23.8711   -2.4028   -3.2011 C.2       2 UNK         0.4993 
     31 O          22.9695   -1.6153   -3.4870 O.2       2 UNK        -0.5286 
     32 CA         24.4950   -2.3484   -1.7921 C.3       2 UNK         0.0209 
     33 CB         23.5810   -3.0449   -0.7704 C.3       2 UNK        -0.1931 
     34 N          25.8404   -2.9323   -1.7124 N.am      2 UNK        -0.4546 
     35 C          26.9081   -2.4354   -2.3512 C.2       1 UNK         0.5154 
     36 O          26.8535   -1.4268   -3.0609 O.2       1 UNK        -0.5181 
     37 C          26.6306    2.1358   -5.2060 C.2       5 UNK         0.5014 
     38 O          26.8751    3.3382   -5.3035 O.2       5 UNK        -0.5248 
     39 N          25.3813    1.6484   -5.1409 N.am      6 UNK        -0.4434 
     40 CA         24.1641    2.4501   -5.3077 C.3       6 UNK         0.0363 
     41 CB         22.9390    1.5858   -4.9725 C.3       6 UNK        -0.1936 
     42 C          24.0232    3.0674   -6.7155 C.2       6 UNK         0.5081 
     43 O          23.3614    4.0956   -6.8553 O.2       6 UNK        -0.5248 
     44 N          24.6658    2.4551   -7.7205 N.am      7 UNK        -0.4718 
     45 CA         24.7903    2.9640   -9.0890 C.3       7 UNK         0.0273 
     46 CB         24.5586    1.7978  -10.0669 C.3       7 UNK        -0.1935 
     47 C          26.1617    3.6280   -9.3348 C.2       7 UNK         0.5018 
     48 O          26.4605    3.9719  -10.4791 O.2       7 UNK        -0.5186 
     49 N          26.9695    3.7870   -8.2733 N.am      8 UNK        -0.4240 
     50 CA         28.3332    4.3283   -8.2438 C.3       8 UNK         0.0235 
     51 CB         28.3426    5.8200   -8.6427 C.3       8 UNK        -0.2000 
     52 C          29.3656    3.4912   -9.0278 C.2       8 UNK         0.4941 
     53 O          30.3799    4.0418   -9.4620 O.2       8 UNK        -0.5273 
     54 N          29.1165    2.1841   -9.1837 N.am      9 UNK        -0.4262 
     55 CA         30.0424    1.2333   -9.7976 C.3       9 UNK         0.0264 
     56 CB         29.2446    0.2403  -10.6584 C.3       9 UNK        -0.1955 
     57 C          30.8583    0.5138   -8.7118 C.2       9 UNK         0.5031 
     58 O          30.3798    0.3412   -7.5892 O.2       9 UNK        -0.5390 
     59 N          32.0827    0.1110   -9.0681 N.am      10 UNK        -0.4204 
     60 CA         33.0210   -0.5877   -8.1875 C.3       10 UNK         0.0237 
     61 CB         34.4534   -0.2630   -8.6497 C.3       10 UNK        -0.1985 
     62 C          32.7822   -2.1082   -8.1767 C.2       10 UNK         0.4970 
     63 O          32.0223   -2.6264   -8.9982 O.2       10 UNK        -0.4914 
     64 N          33.4790   -2.7962   -7.2627 N.am      11 UNK        -0.4285 
     65 CA         33.5067   -4.2659   -7.1497 C.3       11 UNK         0.1007 
     66 C          34.2536   -4.9925   -8.3081 C.2       11 UNK         0.5703 
     67 N          35.0394   -4.3083   -9.1321 N.am      11 UNK        -0.7361 
     68 O          34.1111   -6.2029   -8.4643 O.2       11 UNK        -0.4986 
     69 C69        34.0609   -4.7253   -5.7728 C.3       12 UNK        -0.0947 
     70 S70        33.0007   -4.2051   -4.3858 S.3       12 UNK        -0.2240 
     71 C71        33.9309   -2.8045   -3.6904 C.3       12 UNK         0.0194 
     72 H72        30.9508   -2.2252   -5.0036 H         1 UNK         0.0906 
     73 H73        30.3992   -3.4054   -6.1834 H         1 UNK         0.0906 
     74 H74        29.6749   -1.7956   -6.1259 H         1 UNK         0.0906 
     75 H75        30.0013   -2.3186   -2.9312 H         1 UNK         0.3140 
     76 H76        27.9815   -4.2677   -2.3851 H         1 UNK         0.1085 
     77 H77        28.2060   -3.7186   -0.0870 H         1 UNK         0.0836 
     78 H78        29.7978   -3.6885   -0.7621 H         1 UNK         0.0836 
     79 H79        31.2769   -2.2404    0.5505 H         1 UNK         0.0731 
     80 H80        31.1084   -0.5125    0.7353 H         1 UNK         0.0731 
     81 H81        32.6541   -2.9226   -1.2871 H         1 UNK         0.1312 
     82 H82        33.0773   -0.4500   -4.7625 H         1 UNK         0.1406 
     83 H83        30.5000    0.7653   -1.5545 H         1 UNK         0.1631 
     84 H84        31.2845    1.2192   -5.1609 H         1 UNK         0.0717 
     85 H85        32.1388    2.2511   -4.0378 H         1 UNK         0.0717 
     86 H86        29.0720    0.0229   -3.9082 H         1 UNK         0.0934 
     87 H87        27.8572    0.9560   -3.0908 H         1 UNK         0.0934 
     88 H88        28.5012    1.5197   -6.0028 H         1 UNK         0.0739 
     89 H89        27.2557   -0.9423   -5.1656 H         1 UNK         0.3093 
     90 H90        25.8688   -1.5248   -8.4174 H         1 UNK         0.0818 
     91 H91        28.2138   -3.1823   -7.4892 H         1 UNK         0.0819 
     92 H92        27.3495   -3.1918   -9.0088 H         1 UNK         0.0819 
     93 H93        28.4899   -1.9075   -8.6528 H         1 UNK         0.0819 
     94 H94        26.4371   -3.1975   -6.0757 H         1 UNK         0.3041 
     95 H95        22.8543   -3.3789   -5.4861 H         1 UNK         0.0784 
     96 H96        24.0164   -5.0574   -6.9532 H         1 UNK         0.0793 
     97 H97        25.3414   -5.1477   -5.7997 H         1 UNK         0.0793 
     98 H98        23.7241   -5.6639   -5.3328 H         1 UNK         0.0793 
     99 H99        25.1028   -3.9186   -3.7180 H         1 UNK         0.3024 
    100 H100       24.5730   -1.2927   -1.5211 H         1 UNK         0.1171 
    101 H101       22.5793   -2.6126   -0.7847 H         1 UNK         0.0786 
    102 H102       23.9634   -2.9354    0.2446 H         1 UNK         0.0786 
    103 H103       23.4787   -4.1104   -0.9798 H         1 UNK         0.0786 
    104 H104       25.9443   -3.7586   -1.1407 H         1 UNK         0.2977 
    105 H105       25.2582    0.6487   -5.0640 H         1 UNK         0.3127 
    106 H106       24.2073    3.2749   -4.5932 H         1 UNK         0.0770 
    107 H107       22.8543    0.7273   -5.6401 H         1 UNK         0.0814 
    108 H108       22.0172    2.1619   -5.0640 H         1 UNK         0.0814 
    109 H109       22.9845    1.2105   -3.9499 H         1 UNK         0.0814 
    110 H110       25.2126    1.6259   -7.5193 H         1 UNK         0.2983 
    111 H111       24.0286    3.7234   -9.2782 H         1 UNK         0.0947 
    112 H112       24.5703    2.1441  -11.1011 H         1 UNK         0.0806 
    113 H113       23.5917    1.3239   -9.8969 H         1 UNK         0.0806 
    114 H114       25.3288    1.0314   -9.9721 H         1 UNK         0.0806 
    115 H115       26.6205    3.4847   -7.3711 H         1 UNK         0.3000 
    116 H116       28.6489    4.2715   -7.2011 H         1 UNK         0.0850 
    117 H117       29.3215    6.2672   -8.4660 H         1 UNK         0.0810 
    118 H118       27.6192    6.3908   -8.0606 H         1 UNK         0.0810 
    119 H119       28.1093    5.9583   -9.6988 H         1 UNK         0.0810 
    120 H120       28.3012    1.7724   -8.7344 H         1 UNK         0.3040 
    121 H121       30.7388    1.7593  -10.4542 H         1 UNK         0.0766 
    122 H122       28.8238    0.7362  -11.5332 H         1 UNK         0.0812 
    123 H123       28.4161   -0.2017  -10.1080 H         1 UNK         0.0812 
    124 H124       29.8755   -0.5736  -11.0184 H         1 UNK         0.0812 
    125 H125       32.3775    0.2403  -10.0251 H         1 UNK         0.3205 
    126 H126       32.8920   -0.2169   -7.1687 H         1 UNK         0.0754 
    127 H127       35.1988   -0.6963   -7.9818 H         1 UNK         0.0769 
    128 H128       34.6290    0.8131   -8.6626 H         1 UNK         0.0769 
    129 H129       34.6515   -0.6446   -9.6525 H         1 UNK         0.0769 
    130 H130       34.0988   -2.2991   -6.6429 H         1 UNK         0.2981 
    131 H131       32.4722   -4.6086   -7.2152 H         1 UNK         0.0541 
    132 H132       35.1672   -3.3169   -9.0165 H         1 UNK         0.3459 
    133 H133       35.5113   -4.7948   -9.8780 H         1 UNK         0.3459 
    134 H134       34.1169   -5.8147   -5.7274 H         1 UNK         0.0612 
    135 H135       35.0805   -4.3664   -5.6220 H         1 UNK         0.0612 
    136 H136       34.5383   -2.3332   -4.4637 H         1 UNK         0.0624 
    137 H137       34.6250   -3.1727   -2.9336 H         1 UNK         0.0624 
@<TRIPOS>BOND
     1    1    2 1    
     2    1   72 1    
     3    1   73 1    
     4    1   74 1    
     5    2    3 2    
     6    2    4 am   BACKBONE|DICT|INTERRES
     7    4    5 1    
     8    4   75 1    
     9    5    6 1    
    10    5   35 1    
    11    5   76 1    
    12    6    7 1    
    13    6   77 1    
    14    6   78 1    
    15    7    8 1    
    16    8    9 1    
    17    8   79 1    
    18    8   80 1    
    19    9   10 ar   
    20    9   14 ar   
    21   10   11 ar   
    22   10   81 1    
    23   11   12 ar   
    24   11   71 1    
    25   12   13 ar   
    26   12   82 1    
    27   13   14 ar   
    28   13   15 1    
    29   14   83 1    
    30   15   16 1    
    31   15   84 1    
    32   15   85 1    
    33   16   17 1    
    34   17   18 1    
    35   17   86 1    
    36   17   87 1    
    37   18   19 1    
    38   18   37 1    
    39   18   88 1    
    40   19   20 am   BACKBONE|DICT|INTERRES
    41   19   89 1    
    42   20   21 2    
    43   20   22 1    
    44   22   23 1    
    45   22   24 1    
    46   22   90 1    
    47   23   91 1    
    48   23   92 1    
    49   23   93 1    
    50   24   25 am   BACKBONE|DICT|INTERRES
    51   24   94 1    
    52   25   26 2    
    53   25   27 1    
    54   27   28 1    
    55   27   29 1    
    56   27   95 1    
    57   28   96 1    
    58   28   97 1    
    59   28   98 1    
    60   29   30 am   BACKBONE|DICT|INTERRES
    61   29   99 1    
    62   30   31 2    
    63   30   32 1    
    64   32   33 1    
    65   32   34 1    
    66   32  100 1    
    67   33  101 1    
    68   33  102 1    
    69   33  103 1    
    70   34   35 am   BACKBONE|DICT|INTERRES
    71   34  104 1    
    72   35   36 2    
    73   37   38 2    
    74   37   39 am   BACKBONE|DICT|INTERRES
    75   39   40 1    
    76   39  105 1    
    77   40   41 1    
    78   40   42 1    
    79   40  106 1    
    80   41  107 1    
    81   41  108 1    
    82   41  109 1    
    83   42   43 2    
    84   42   44 am   BACKBONE|DICT|INTERRES
    85   44   45 1    
    86   44  110 1    
    87   45   46 1    
    88   45   47 1    
    89   45  111 1    
    90   46  112 1    
    91   46  113 1    
    92   46  114 1    
    93   47   48 2    
    94   47   49 am   BACKBONE|DICT|INTERRES
    95   49   50 1    
    96   49  115 1    
    97   50   51 1    
    98   50   52 1    
    99   50  116 1    
   100   51  117 1    
   101   51  118 1    
   102   51  119 1    
   103   52   53 2    
   104   52   54 am   BACKBONE|DICT|INTERRES
   105   54   55 1    
   106   54  120 1    
   107   55   56 1    
   108   55   57 1    
   109   55  121 1    
   110   56  122 1    
   111   56  123 1    
   112   56  124 1    
   113   57   58 2    
   114   57   59 am   BACKBONE|DICT|INTERRES
   115   59   60 1    
   116   59  125 1    
   117   60   61 1    
   118   60   62 1    
   119   60  126 1    
   120   61  127 1    
   121   61  128 1    
   122   61  129 1    
   123   62   63 2    
   124   62   64 am   BACKBONE|DICT|INTERRES
   125   64   65 1    
   126   64  130 1    
   127   65   66 1    
   128   65   69 1    
   129   65  131 1    
   130   66   67 am   BACKBONE|DICT|INTERRES
   131   66   68 2    
   132   67  132 1    
   133   67  133 1    
   134   69   70 1    
   135   69  134 1    
   136   69  135 1    
   137   70   71 1    
   138   71  136 1    
   139   71  137 1    
@<TRIPOS>SUBSTRUCTURE
     1 UNK         1 GROUP             0       ****    0 ROOT    
