@<TRIPOS>MOLECULE
3R137
137   139    1
SMALL
USER_CHARGES


@<TRIPOS>ATOM
      1 CA         28.4535   -5.4909    0.2078 C.3       0 UNK        -0.2020 
      2 C          27.7667   -4.3068   -0.4542 C.2       0 UNK         0.4855 
      3 O          27.4612   -4.3709   -1.6449 O.2       0 UNK        -0.5197 
      4 N          27.5214   -3.2330    0.3105 N.am      1 UNK        -0.4892 
      5 CA         26.9002   -1.9522   -0.0728 C.3       1 UNK         0.0835 
      6 C6         27.6761   -1.1751   -1.1705 C.3       12 UNK        -0.0855 
      7 S7         29.2495   -0.4754   -0.5696 S.3       12 UNK        -0.2931 
      8 C8         30.4836   -1.6898   -1.1331 C.3       12 UNK         0.0378 
      9 C9         30.5759   -1.7836   -2.6500 C.ar      12 UNK        -0.0802 
     10 C10        31.1286   -0.7366   -3.3945 C.ar      12 UNK        -0.0944 
     11 C11        31.2592   -0.8462   -4.7828 C.ar      12 UNK        -0.0787 
     12 C12        30.8368   -2.0141   -5.4241 C.ar      12 UNK        -0.0862 
     13 C13        30.2605   -3.0573   -4.6937 C.ar      12 UNK        -0.0733 
     14 C14        30.1392   -2.9373   -3.3072 C.ar      12 UNK        -0.0832 
     15 C15        29.7892   -4.3258   -5.3921 C.3       12 UNK         0.0240 
     16 S16        28.5546   -4.0067   -6.6929 S.3       12 UNK        -0.2522 
     17 C17        27.1408   -3.3380   -5.7501 C.3       12 UNK        -0.0967 
     18 CA         26.5789   -2.0452   -6.4045 C.3       5 UNK         0.0660 
     19 N          25.1119   -2.0254   -6.3781 N.am      5 UNK        -0.4015 
     20 C          24.3247   -1.9060   -7.4577 C.2       4 UNK         0.4946 
     21 O          24.7504   -1.7517   -8.6034 O.2       4 UNK        -0.5353 
     22 CA         22.7996   -2.0024   -7.2530 C.3       4 UNK         0.0277 
     23 CB         22.3008   -3.4082   -7.6274 C.3       4 UNK        -0.1981 
     24 N          22.3647   -1.6923   -5.8904 N.am      4 UNK        -0.4209 
     25 C          22.3126   -0.4587   -5.3708 C.2       3 UNK         0.4942 
     26 O          22.5557    0.5640   -6.0112 O.2       3 UNK        -0.5208 
     27 CA         21.9487   -0.3419   -3.8776 C.3       3 UNK         0.0250 
     28 CB         20.4498   -0.0407   -3.7161 C.3       3 UNK        -0.1990 
     29 N          22.3005   -1.5034   -3.0456 N.am      3 UNK        -0.4232 
     30 C          23.5273   -2.0293   -2.9289 C.2       2 UNK         0.4993 
     31 O          24.4865   -1.6865   -3.6240 O.2       2 UNK        -0.5286 
     32 CA         23.7175   -3.1523   -1.8986 C.3       2 UNK         0.0209 
     33 CB         23.6046   -4.5254   -2.5794 C.3       2 UNK        -0.1931 
     34 N          25.0335   -3.0399   -1.2690 N.am      2 UNK        -0.4546 
     35 C          25.4038   -2.0570   -0.4403 C.2       1 UNK         0.5154 
     36 O          24.6131   -1.2348    0.0261 O.2       1 UNK        -0.5181 
     37 C          27.1781   -0.7679   -5.7816 C.2       5 UNK         0.5014 
     38 O          28.2706   -0.3684   -6.1819 O.2       5 UNK        -0.5248 
     39 N          26.4590   -0.1341   -4.8418 N.am      6 UNK        -0.4434 
     40 CA         26.8136    1.1120   -4.1563 C.3       6 UNK         0.0363 
     41 CB         25.6213    1.5588   -3.2906 C.3       6 UNK        -0.1936 
     42 C          27.2366    2.2342   -5.1232 C.2       6 UNK         0.5081 
     43 O          26.3903    2.7833   -5.8311 O.2       6 UNK        -0.5248 
     44 N          28.5456    2.5238   -5.1383 N.am      7 UNK        -0.4718 
     45 CA         29.2349    3.4949   -5.9982 C.3       7 UNK         0.0273 
     46 CB         28.7915    4.9356   -5.6626 C.3       7 UNK        -0.1935 
     47 C          29.1506    3.1792   -7.5083 C.2       7 UNK         0.5018 
     48 O          29.2358    4.1012   -8.3229 O.2       7 UNK        -0.5186 
     49 N          29.0009    1.8948   -7.8665 N.am      8 UNK        -0.4240 
     50 CA         29.0256    1.4137   -9.2506 C.3       8 UNK         0.0235 
     51 CB         28.4791   -0.0239   -9.2992 C.3       8 UNK        -0.2000 
     52 C          30.4347    1.4735   -9.8661 C.2       8 UNK         0.4941 
     53 O          31.4301    1.5947   -9.1457 O.2       8 UNK        -0.5273 
     54 N          30.4888    1.3237  -11.1983 N.am      9 UNK        -0.4262 
     55 CA         31.6947    1.3729  -12.0379 C.3       9 UNK         0.0264 
     56 CB         31.2937    1.1599  -13.5068 C.3       9 UNK        -0.1955 
     57 C          32.8215    0.3977  -11.6452 C.2       9 UNK         0.5031 
     58 O          33.9760    0.6531  -11.9898 O.2       9 UNK        -0.5390 
     59 N          32.4907   -0.6625  -10.8937 N.am      10 UNK        -0.4204 
     60 CA         33.4354   -1.5817  -10.2512 C.3       10 UNK         0.0237 
     61 CB         32.6467   -2.6723   -9.5073 C.3       10 UNK        -0.1985 
     62 C          34.4260   -0.8900   -9.2917 C.2       10 UNK         0.4970 
     63 O          35.5459   -1.3800   -9.1414 O.2       10 UNK        -0.4914 
     64 N          34.0124    0.2328   -8.6882 N.am      11 UNK        -0.4285 
     65 CA         34.8616    1.1090   -7.8672 C.3       11 UNK         0.1007 
     66 C          35.5332    2.2584   -8.6766 C.2       11 UNK         0.5703 
     67 N          35.4002    2.3290   -9.9966 N.am      11 UNK        -0.7361 
     68 O          36.2152    3.1005   -8.0967 O.2       11 UNK        -0.4986 
     69 C69        34.0940    1.6408   -6.6279 C.3       12 UNK        -0.0947 
     70 S70        33.6622    0.2962   -5.4756 S.3       12 UNK        -0.2240 
     71 C71        31.8510    0.2954   -5.5926 C.3       12 UNK         0.0194 
     72 H72        29.3916   -5.7110   -0.3010 H         1 UNK         0.0906 
     73 H73        27.8180   -6.3740    0.1471 H         1 UNK         0.0906 
     74 H74        28.6738   -5.3023    1.2583 H         1 UNK         0.0906 
     75 H75        27.7824   -3.2807    1.2862 H         1 UNK         0.3140 
     76 H76        26.9254   -1.3425    0.8325 H         1 UNK         0.1085 
     77 H77        27.0886   -0.3208   -1.5059 H         1 UNK         0.0836 
     78 H78        27.8344   -1.7845   -2.0608 H         1 UNK         0.0836 
     79 H79        31.4589   -1.4022   -0.7381 H         1 UNK         0.0731 
     80 H80        30.2578   -2.6619   -0.6940 H         1 UNK         0.0731 
     81 H81        31.4662    0.1593   -2.8915 H         1 UNK         0.1312 
     82 H82        30.9309   -2.1024   -6.4972 H         1 UNK         0.1406 
     83 H83        29.7112   -3.7495   -2.7372 H         1 UNK         0.1631 
     84 H84        29.3679   -5.0341   -4.6767 H         1 UNK         0.0717 
     85 H85        30.6518   -4.8190   -5.8418 H         1 UNK         0.0717 
     86 H86        26.3827   -4.1230   -5.7408 H         1 UNK         0.0934 
     87 H87        27.4057   -3.1852   -4.7012 H         1 UNK         0.0934 
     88 H88        26.8984   -2.0301   -7.4483 H         1 UNK         0.0739 
     89 H89        24.6855   -2.0896   -5.4582 H         1 UNK         0.3093 
     90 H90        22.3345   -1.2851   -7.9330 H         1 UNK         0.0818 
     91 H91        22.5790   -3.6609   -8.6517 H         1 UNK         0.0819 
     92 H92        22.7240   -4.1748   -6.9771 H         1 UNK         0.0819 
     93 H93        21.2144   -3.4745   -7.5644 H         1 UNK         0.0819 
     94 H94        22.1334   -2.4725   -5.2930 H         1 UNK         0.3041 
     95 H95        22.5085    0.5091   -3.4843 H         1 UNK         0.0784 
     96 H96        20.1609    0.8339   -4.3012 H         1 UNK         0.0793 
     97 H97        19.8321   -0.8750   -4.0510 H         1 UNK         0.0793 
     98 H98        20.1957    0.1712   -2.6773 H         1 UNK         0.0793 
     99 H99        21.5633   -1.8652   -2.4571 H         1 UNK         0.3024 
    100 H100       22.9523   -3.0675   -1.1237 H         1 UNK         0.1171 
    101 H101       24.3572   -4.6516   -3.3595 H         1 UNK         0.0786 
    102 H102       23.7313   -5.3349   -1.8603 H         1 UNK         0.0786 
    103 H103       22.6260   -4.6553   -3.0436 H         1 UNK         0.0786 
    104 H104       25.7738   -3.6459   -1.6167 H         1 UNK         0.2977 
    105 H105       25.6073   -0.5837   -4.5148 H         1 UNK         0.3127 
    106 H106       27.6522    0.8870   -3.4949 H         1 UNK         0.0770 
    107 H107       25.3338    0.7949   -2.5687 H         1 UNK         0.0814 
    108 H108       25.8639    2.4620   -2.7295 H         1 UNK         0.0814 
    109 H109       24.7447    1.7795   -3.9014 H         1 UNK         0.0814 
    110 H110       29.1483    1.9705   -4.5448 H         1 UNK         0.2983 
    111 H111       30.2940    3.4181   -5.7480 H         1 UNK         0.0947 
    112 H112       27.7573    5.1192   -5.9550 H         1 UNK         0.0806 
    113 H113       29.4099    5.6679   -6.1832 H         1 UNK         0.0806 
    114 H114       28.8808    5.1408   -4.5959 H         1 UNK         0.0806 
    115 H115       28.9041    1.1858   -7.1433 H         1 UNK         0.3000 
    116 H116       28.3696    2.0555   -9.8426 H         1 UNK         0.0850 
    117 H117       28.4319   -0.4025  -10.3207 H         1 UNK         0.0810 
    118 H118       27.4667   -0.0723   -8.8976 H         1 UNK         0.0810 
    119 H119       29.1015   -0.7119   -8.7247 H         1 UNK         0.0810 
    120 H120       29.6165    1.2099  -11.6951 H         1 UNK         0.3040 
    121 H121       32.1063    2.3795  -11.9400 H         1 UNK         0.0766 
    122 H122       30.8362    0.1820  -13.6626 H         1 UNK         0.0812 
    123 H123       32.1636    1.2202  -14.1627 H         1 UNK         0.0812 
    124 H124       30.5877    1.9201  -13.8417 H         1 UNK         0.0812 
    125 H125       31.5157   -0.7835  -10.6639 H         1 UNK         0.3205 
    126 H126       34.0219   -2.0551  -11.0412 H         1 UNK         0.0754 
    127 H127       32.0140   -2.2496   -8.7258 H         1 UNK         0.0769 
    128 H128       33.3205   -3.3855   -9.0302 H         1 UNK         0.0769 
    129 H129       32.0093   -3.2374  -10.1877 H         1 UNK         0.0769 
    130 H130       33.0813    0.5913   -8.8826 H         1 UNK         0.2981 
    131 H131       35.7001    0.5226   -7.4874 H         1 UNK         0.0541 
    132 H132       35.8553    3.0800  -10.4901 H         1 UNK         0.3459 
    133 H133       34.8785    1.6334  -10.5178 H         1 UNK         0.3459 
    134 H134       33.1971    2.1831   -6.9331 H         1 UNK         0.0612 
    135 H135       34.7031    2.3511   -6.0662 H         1 UNK         0.0612 
    136 H136       31.5524    0.2167   -6.6396 H         1 UNK         0.0624 
    137 H137       31.4641    1.2473   -5.2283 H         1 UNK         0.0624 
@<TRIPOS>BOND
     1    1    2 1    
     2    1   72 1    
     3    1   73 1    
     4    1   74 1    
     5    2    3 2    
     6    2    4 am   BACKBONE|DICT|INTERRES
     7    4    5 1    
     8    4   75 1    
     9    5    6 1    
    10    5   35 1    
    11    5   76 1    
    12    6    7 1    
    13    6   77 1    
    14    6   78 1    
    15    7    8 1    
    16    8    9 1    
    17    8   79 1    
    18    8   80 1    
    19    9   10 ar   
    20    9   14 ar   
    21   10   11 ar   
    22   10   81 1    
    23   11   12 ar   
    24   11   71 1    
    25   12   13 ar   
    26   12   82 1    
    27   13   14 ar   
    28   13   15 1    
    29   14   83 1    
    30   15   16 1    
    31   15   84 1    
    32   15   85 1    
    33   16   17 1    
    34   17   18 1    
    35   17   86 1    
    36   17   87 1    
    37   18   19 1    
    38   18   37 1    
    39   18   88 1    
    40   19   20 am   BACKBONE|DICT|INTERRES
    41   19   89 1    
    42   20   21 2    
    43   20   22 1    
    44   22   23 1    
    45   22   24 1    
    46   22   90 1    
    47   23   91 1    
    48   23   92 1    
    49   23   93 1    
    50   24   25 am   BACKBONE|DICT|INTERRES
    51   24   94 1    
    52   25   26 2    
    53   25   27 1    
    54   27   28 1    
    55   27   29 1    
    56   27   95 1    
    57   28   96 1    
    58   28   97 1    
    59   28   98 1    
    60   29   30 am   BACKBONE|DICT|INTERRES
    61   29   99 1    
    62   30   31 2    
    63   30   32 1    
    64   32   33 1    
    65   32   34 1    
    66   32  100 1    
    67   33  101 1    
    68   33  102 1    
    69   33  103 1    
    70   34   35 am   BACKBONE|DICT|INTERRES
    71   34  104 1    
    72   35   36 2    
    73   37   38 2    
    74   37   39 am   BACKBONE|DICT|INTERRES
    75   39   40 1    
    76   39  105 1    
    77   40   41 1    
    78   40   42 1    
    79   40  106 1    
    80   41  107 1    
    81   41  108 1    
    82   41  109 1    
    83   42   43 2    
    84   42   44 am   BACKBONE|DICT|INTERRES
    85   44   45 1    
    86   44  110 1    
    87   45   46 1    
    88   45   47 1    
    89   45  111 1    
    90   46  112 1    
    91   46  113 1    
    92   46  114 1    
    93   47   48 2    
    94   47   49 am   BACKBONE|DICT|INTERRES
    95   49   50 1    
    96   49  115 1    
    97   50   51 1    
    98   50   52 1    
    99   50  116 1    
   100   51  117 1    
   101   51  118 1    
   102   51  119 1    
   103   52   53 2    
   104   52   54 am   BACKBONE|DICT|INTERRES
   105   54   55 1    
   106   54  120 1    
   107   55   56 1    
   108   55   57 1    
   109   55  121 1    
   110   56  122 1    
   111   56  123 1    
   112   56  124 1    
   113   57   58 2    
   114   57   59 am   BACKBONE|DICT|INTERRES
   115   59   60 1    
   116   59  125 1    
   117   60   61 1    
   118   60   62 1    
   119   60  126 1    
   120   61  127 1    
   121   61  128 1    
   122   61  129 1    
   123   62   63 2    
   124   62   64 am   BACKBONE|DICT|INTERRES
   125   64   65 1    
   126   64  130 1    
   127   65   66 1    
   128   65   69 1    
   129   65  131 1    
   130   66   67 am   BACKBONE|DICT|INTERRES
   131   66   68 2    
   132   67  132 1    
   133   67  133 1    
   134   69   70 1    
   135   69  134 1    
   136   69  135 1    
   137   70   71 1    
   138   71  136 1    
   139   71  137 1    
@<TRIPOS>SUBSTRUCTURE
     1 UNK         1 GROUP             0       ****    0 ROOT    
