@<TRIPOS>MOLECULE
3R137
137   139    1
SMALL
USER_CHARGES


@<TRIPOS>ATOM
      1 CA         27.2124   -3.3559    2.4013 C.3       0 UNK        -0.2020 
      2 C          27.3885   -1.9500    1.8476 C.2       0 UNK         0.4855 
      3 O          26.9959   -0.9821    2.4994 O.2       0 UNK        -0.5197 
      4 N          27.9799   -1.8317    0.6516 N.am      1 UNK        -0.4892 
      5 CA         28.2102   -0.5604   -0.0491 C.3       1 UNK         0.0835 
      6 C6         29.2166   -0.7153   -1.2165 C.3       12 UNK        -0.0855 
      7 S7         30.8893   -1.1638   -0.6405 S.3       12 UNK        -0.2931 
      8 C8         30.9434   -2.9649   -0.9172 C.3       12 UNK         0.0378 
      9 C9         30.9498   -3.3316   -2.3949 C.ar      12 UNK        -0.0802 
     10 C10        32.0918   -3.1015   -3.1670 C.ar      12 UNK        -0.0944 
     11 C11        32.1226   -3.4550   -4.5208 C.ar      12 UNK        -0.0787 
     12 C12        31.0030   -4.0698   -5.0912 C.ar      12 UNK        -0.0862 
     13 C13        29.8577   -4.3161   -4.3275 C.ar      12 UNK        -0.0733 
     14 C14        29.8338   -3.9363   -2.9822 C.ar      12 UNK        -0.0832 
     15 C15        28.6609   -5.0344   -4.9357 C.3       12 UNK         0.0240 
     16 S16        27.4062   -3.8736   -5.5555 S.3       12 UNK        -0.2522 
     17 C17        28.0639   -3.4868   -7.2159 C.3       12 UNK        -0.0967 
     18 CA         27.4583   -2.2111   -7.8493 C.3       5 UNK         0.0660 
     19 N          25.9928   -2.2387   -7.8669 N.am      5 UNK        -0.4015 
     20 C          25.2253   -1.3878   -8.5589 C.2       4 UNK         0.4946 
     21 O          25.6708   -0.4935   -9.2754 O.2       4 UNK        -0.5353 
     22 CA         23.7033   -1.5308   -8.4078 C.3       4 UNK         0.0277 
     23 CB         23.1626   -2.5661   -9.4069 C.3       4 UNK        -0.1981 
     24 N          23.2428   -1.8668   -7.0563 N.am      4 UNK        -0.4209 
     25 C          23.5105   -1.1781   -5.9370 C.2       3 UNK         0.4942 
     26 O          24.2846   -0.2180   -5.8928 O.2       3 UNK        -0.5208 
     27 CA         22.7297   -1.6088   -4.6796 C.3       3 UNK         0.0250 
     28 CB         22.6069   -3.1441   -4.5321 C.3       3 UNK        -0.1990 
     29 N          23.2366   -0.9872   -3.4492 N.am      3 UNK        -0.4232 
     30 C          24.3831   -1.2568   -2.8096 C.2       2 UNK         0.4993 
     31 O          25.1905   -2.1221   -3.1579 O.2       2 UNK        -0.5286 
     32 CA         24.6601   -0.4195   -1.5511 C.3       2 UNK         0.0209 
     33 CB         23.5897   -0.6490   -0.4668 C.3       2 UNK        -0.1931 
     34 N          25.9640   -0.7853   -1.0044 N.am      2 UNK        -0.4546 
     35 C          26.8922    0.0646   -0.5515 C.2       1 UNK         0.5154 
     36 O          26.7439    1.2870   -0.5140 O.2       1 UNK        -0.5181 
     37 C          28.0265   -0.9257   -7.2141 C.2       5 UNK         0.5014 
     38 O          29.0286   -0.4043   -7.7074 O.2       5 UNK        -0.5248 
     39 N          27.3676   -0.4204   -6.1624 N.am      6 UNK        -0.4434 
     40 CA         27.7174    0.8381   -5.5077 C.3       6 UNK         0.0363 
     41 CB         27.1089    0.8734   -4.1002 C.3       6 UNK        -0.1936 
     42 C          27.2538    2.0465   -6.3320 C.2       6 UNK         0.5081 
     43 O          27.9949    3.0230   -6.4315 O.2       6 UNK        -0.5248 
     44 N          26.0578    1.9499   -6.9326 N.am      7 UNK        -0.4718 
     45 CA         25.4808    2.9734   -7.8102 C.3       7 UNK         0.0273 
     46 CB         24.0232    2.6133   -8.1366 C.3       7 UNK        -0.1935 
     47 C          26.2953    3.1859   -9.0984 C.2       7 UNK         0.5018 
     48 O          26.5262    4.3316   -9.4861 O.2       7 UNK        -0.5186 
     49 N          26.7420    2.0840   -9.7175 N.am      8 UNK        -0.4240 
     50 CA         27.6385    2.0844  -10.8773 C.3       8 UNK         0.0235 
     51 CB         27.5544    0.7174  -11.5768 C.3       8 UNK        -0.2000 
     52 C          29.1019    2.4007  -10.5178 C.2       8 UNK         0.4941 
     53 O          29.8747    2.7225  -11.4210 O.2       8 UNK        -0.5273 
     54 N          29.4542    2.2844   -9.2275 N.am      9 UNK        -0.4262 
     55 CA         30.7917    2.4206   -8.6422 C.3       9 UNK         0.0264 
     56 CB         31.2973    3.8749   -8.7475 C.3       9 UNK        -0.1955 
     57 C          31.7742    1.3897   -9.2266 C.2       9 UNK         0.5031 
     58 O          32.8392    1.7605   -9.7253 O.2       9 UNK        -0.5390 
     59 N          31.3901    0.1066   -9.1470 N.am      10 UNK        -0.4204 
     60 CA         32.0851   -1.0530   -9.7260 C.3       10 UNK         0.0237 
     61 CB         31.2841   -2.3246   -9.3992 C.3       10 UNK        -0.1985 
     62 C          33.5556   -1.2273   -9.2974 C.2       10 UNK         0.4970 
     63 O          34.3345   -1.8177  -10.0470 O.2       10 UNK        -0.4914 
     64 N          33.9009   -0.7053   -8.1184 N.am      11 UNK        -0.4285 
     65 CA         35.2548   -0.6400   -7.5530 C.3       11 UNK         0.1007 
     66 C          35.6816    0.8141   -7.1935 C.2       11 UNK         0.5703 
     67 N          35.0299    1.8451   -7.7218 N.am      11 UNK        -0.7361 
     68 O          36.6343    1.0202   -6.4450 O.2       11 UNK        -0.4986 
     69 C69        35.4463   -1.6609   -6.3963 C.3       12 UNK        -0.0947 
     70 S70        34.1364   -1.5950   -5.1236 S.3       12 UNK        -0.2240 
     71 C71        33.3729   -3.2331   -5.3653 C.3       12 UNK         0.0194 
     72 H72        27.6139   -4.1142    1.7294 H         1 UNK         0.0906 
     73 H73        27.7233   -3.4482    3.3594 H         1 UNK         0.0906 
     74 H74        26.1548   -3.5672    2.5576 H         1 UNK         0.0906 
     75 H75        28.2920   -2.6616    0.1711 H         1 UNK         0.3140 
     76 H76        28.6339    0.1438    0.6711 H         1 UNK         0.1085 
     77 H77        28.8608   -1.4422   -1.9484 H         1 UNK         0.0836 
     78 H78        29.3146    0.2277   -1.7585 H         1 UNK         0.0836 
     79 H79        30.1114   -3.4426   -0.3994 H         1 UNK         0.0731 
     80 H80        31.8487   -3.3587   -0.4527 H         1 UNK         0.0731 
     81 H81        32.9591   -2.6462   -2.7085 H         1 UNK         0.1312 
     82 H82        31.0304   -4.3760   -6.1277 H         1 UNK         0.1406 
     83 H83        28.9493   -4.1306   -2.3908 H         1 UNK         0.1631 
     84 H84        28.1984   -5.6733   -4.1819 H         1 UNK         0.0717 
     85 H85        28.9777   -5.7010   -5.7394 H         1 UNK         0.0717 
     86 H86        29.1504   -3.4055   -7.1725 H         1 UNK         0.0934 
     87 H87        27.8606   -4.3428   -7.8614 H         1 UNK         0.0934 
     88 H88        27.7788   -2.1930   -8.8935 H         1 UNK         0.0739 
     89 H89        25.5515   -2.9307   -7.2786 H         1 UNK         0.3093 
     90 H90        23.2641   -0.5641   -8.6591 H         1 UNK         0.0818 
     91 H91        22.0726   -2.5892   -9.4058 H         1 UNK         0.0819 
     92 H92        23.4766   -2.3275  -10.4244 H         1 UNK         0.0819 
     93 H93        23.5210   -3.5717   -9.1830 H         1 UNK         0.0819 
     94 H94        22.5938   -2.6374   -6.9890 H         1 UNK         0.3041 
     95 H95        21.7212   -1.2127   -4.8076 H         1 UNK         0.0784 
     96 H96        21.9841   -3.5742   -5.3169 H         1 UNK         0.0793 
     97 H97        23.5785   -3.6376   -4.5792 H         1 UNK         0.0793 
     98 H98        22.1444   -3.4135   -3.5824 H         1 UNK         0.0793 
     99 H99        22.6666   -0.2330   -3.0927 H         1 UNK         0.3024 
    100 H100       24.6601    0.6319   -1.8485 H         1 UNK         0.1171 
    101 H101       23.8156   -0.0804    0.4358 H         1 UNK         0.0786 
    102 H102       22.6021   -0.3329   -0.8039 H         1 UNK         0.0786 
    103 H103       23.5201   -1.7011   -0.1875 H         1 UNK         0.0786 
    104 H104       26.1947   -1.7668   -1.0807 H         1 UNK         0.2977 
    105 H105       26.5265   -0.8832   -5.8417 H         1 UNK         0.3127 
    106 H106       28.8043    0.8873   -5.4090 H         1 UNK         0.0770 
    107 H107       26.0206    0.9254   -4.1315 H         1 UNK         0.0814 
    108 H108       27.4606    1.7428   -3.5435 H         1 UNK         0.0814 
    109 H109       27.3853   -0.0147   -3.5335 H         1 UNK         0.0814 
    110 H110       25.4940    1.1236   -6.7536 H         1 UNK         0.2983 
    111 H111       25.4828    3.9168   -7.2597 H         1 UNK         0.0947 
    112 H112       23.5493    3.4031   -8.7209 H         1 UNK         0.0806 
    113 H113       23.4328    2.4800   -7.2298 H         1 UNK         0.0806 
    114 H114       23.9562    1.6946   -8.7187 H         1 UNK         0.0806 
    115 H115       26.4373    1.1713   -9.3804 H         1 UNK         0.3000 
    116 H116       27.2983    2.8503  -11.5776 H         1 UNK         0.0850 
    117 H117       28.1717    0.6979  -12.4759 H         1 UNK         0.0810 
    118 H118       26.5324    0.4885  -11.8796 H         1 UNK         0.0810 
    119 H119       27.8987   -0.0880  -10.9263 H         1 UNK         0.0810 
    120 H120       28.7320    2.0036   -8.5779 H         1 UNK         0.3040 
    121 H121       30.6875    2.1844   -7.5819 H         1 UNK         0.0766 
    122 H122       31.4572    4.1773   -9.7829 H         1 UNK         0.0812 
    123 H123       32.2466    3.9953   -8.2243 H         1 UNK         0.0812 
    124 H124       30.5889    4.5718   -8.2996 H         1 UNK         0.0812 
    125 H125       30.5044   -0.0891   -8.6777 H         1 UNK         0.3205 
    126 H126       32.0839   -0.9154  -10.8089 H         1 UNK         0.0754 
    127 H127       31.7517   -3.2079   -9.8366 H         1 UNK         0.0769 
    128 H128       30.2698   -2.2671   -9.7947 H         1 UNK         0.0769 
    129 H129       31.2166   -2.4885   -8.3229 H         1 UNK         0.0769 
    130 H130       33.1890   -0.2429   -7.5728 H         1 UNK         0.2981 
    131 H131       35.9676   -0.9195   -8.3305 H         1 UNK         0.0541 
    132 H132       34.2988    1.7086   -8.4126 H         1 UNK         0.3459 
    133 H133       35.3260    2.7788   -7.4867 H         1 UNK         0.3459 
    134 H134       36.4129   -1.5291   -5.9075 H         1 UNK         0.0612 
    135 H135       35.4802   -2.6658   -6.8194 H         1 UNK         0.0612 
    136 H136       33.1361   -3.3468   -6.4247 H         1 UNK         0.0624 
    137 H137       34.1028   -4.0059   -5.1210 H         1 UNK         0.0624 
@<TRIPOS>BOND
     1    1    2 1    
     2    1   72 1    
     3    1   73 1    
     4    1   74 1    
     5    2    3 2    
     6    2    4 am   BACKBONE|DICT|INTERRES
     7    4    5 1    
     8    4   75 1    
     9    5    6 1    
    10    5   35 1    
    11    5   76 1    
    12    6    7 1    
    13    6   77 1    
    14    6   78 1    
    15    7    8 1    
    16    8    9 1    
    17    8   79 1    
    18    8   80 1    
    19    9   10 ar   
    20    9   14 ar   
    21   10   11 ar   
    22   10   81 1    
    23   11   12 ar   
    24   11   71 1    
    25   12   13 ar   
    26   12   82 1    
    27   13   14 ar   
    28   13   15 1    
    29   14   83 1    
    30   15   16 1    
    31   15   84 1    
    32   15   85 1    
    33   16   17 1    
    34   17   18 1    
    35   17   86 1    
    36   17   87 1    
    37   18   19 1    
    38   18   37 1    
    39   18   88 1    
    40   19   20 am   BACKBONE|DICT|INTERRES
    41   19   89 1    
    42   20   21 2    
    43   20   22 1    
    44   22   23 1    
    45   22   24 1    
    46   22   90 1    
    47   23   91 1    
    48   23   92 1    
    49   23   93 1    
    50   24   25 am   BACKBONE|DICT|INTERRES
    51   24   94 1    
    52   25   26 2    
    53   25   27 1    
    54   27   28 1    
    55   27   29 1    
    56   27   95 1    
    57   28   96 1    
    58   28   97 1    
    59   28   98 1    
    60   29   30 am   BACKBONE|DICT|INTERRES
    61   29   99 1    
    62   30   31 2    
    63   30   32 1    
    64   32   33 1    
    65   32   34 1    
    66   32  100 1    
    67   33  101 1    
    68   33  102 1    
    69   33  103 1    
    70   34   35 am   BACKBONE|DICT|INTERRES
    71   34  104 1    
    72   35   36 2    
    73   37   38 2    
    74   37   39 am   BACKBONE|DICT|INTERRES
    75   39   40 1    
    76   39  105 1    
    77   40   41 1    
    78   40   42 1    
    79   40  106 1    
    80   41  107 1    
    81   41  108 1    
    82   41  109 1    
    83   42   43 2    
    84   42   44 am   BACKBONE|DICT|INTERRES
    85   44   45 1    
    86   44  110 1    
    87   45   46 1    
    88   45   47 1    
    89   45  111 1    
    90   46  112 1    
    91   46  113 1    
    92   46  114 1    
    93   47   48 2    
    94   47   49 am   BACKBONE|DICT|INTERRES
    95   49   50 1    
    96   49  115 1    
    97   50   51 1    
    98   50   52 1    
    99   50  116 1    
   100   51  117 1    
   101   51  118 1    
   102   51  119 1    
   103   52   53 2    
   104   52   54 am   BACKBONE|DICT|INTERRES
   105   54   55 1    
   106   54  120 1    
   107   55   56 1    
   108   55   57 1    
   109   55  121 1    
   110   56  122 1    
   111   56  123 1    
   112   56  124 1    
   113   57   58 2    
   114   57   59 am   BACKBONE|DICT|INTERRES
   115   59   60 1    
   116   59  125 1    
   117   60   61 1    
   118   60   62 1    
   119   60  126 1    
   120   61  127 1    
   121   61  128 1    
   122   61  129 1    
   123   62   63 2    
   124   62   64 am   BACKBONE|DICT|INTERRES
   125   64   65 1    
   126   64  130 1    
   127   65   66 1    
   128   65   69 1    
   129   65  131 1    
   130   66   67 am   BACKBONE|DICT|INTERRES
   131   66   68 2    
   132   67  132 1    
   133   67  133 1    
   134   69   70 1    
   135   69  134 1    
   136   69  135 1    
   137   70   71 1    
   138   71  136 1    
   139   71  137 1    
@<TRIPOS>SUBSTRUCTURE
     1 UNK         1 GROUP             0       ****    0 ROOT    
