@<TRIPOS>MOLECULE
3R137
137   139    1
SMALL
USER_CHARGES


@<TRIPOS>ATOM
      1 CA         28.4059   -7.5884   -4.9721 C.3       0 UNK        -0.2020 
      2 C          27.7400   -6.3674   -4.3573 C.2       0 UNK         0.4855 
      3 O          27.1056   -5.5933   -5.0731 O.2       0 UNK        -0.5197 
      4 N          27.8486   -6.2070   -3.0297 N.am      1 UNK        -0.4892 
      5 CA         27.3859   -5.0575   -2.2234 C.3       1 UNK         0.0835 
      6 C6         28.0630   -3.7160   -2.6324 C.3       12 UNK        -0.0855 
      7 S7         29.8851   -3.8213   -2.5784 S.3       12 UNK        -0.2931 
      8 C8         30.2832   -2.8041   -1.1224 C.3       12 UNK         0.0378 
      9 C9         30.3915   -1.3269   -1.4736 C.ar      12 UNK        -0.0802 
     10 C10        31.4476   -0.8836   -2.2751 C.ar      12 UNK        -0.0944 
     11 C11        31.5920    0.4718   -2.5808 C.ar      12 UNK        -0.0787 
     12 C12        30.6756    1.3920   -2.0617 C.ar      12 UNK        -0.0862 
     13 C13        29.6173    0.9646   -1.2510 C.ar      12 UNK        -0.0733 
     14 C14        29.4747   -0.3986   -0.9682 C.ar      12 UNK        -0.0832 
     15 C15        28.6563    1.9803   -0.6421 C.3       12 UNK         0.0240 
     16 S16        27.0544    2.0499   -1.5094 S.3       12 UNK        -0.2522 
     17 C17        27.5551    2.6148   -3.1700 C.3       12 UNK        -0.0967 
     18 CA         27.5456    1.4287   -4.1756 C.3       5 UNK         0.0660 
     19 N          26.1990    0.8962   -4.4106 N.am      5 UNK        -0.4015 
     20 C          25.1855    1.4920   -5.0505 C.2       4 UNK         0.4946 
     21 O          25.2604    2.6136   -5.5586 O.2       4 UNK        -0.5353 
     22 CA         23.8597    0.7003   -5.1220 C.3       4 UNK         0.0277 
     23 CB         22.7625    1.4635   -5.8891 C.3       4 UNK        -0.1981 
     24 N          23.9888   -0.6413   -5.7063 N.am      4 UNK        -0.4209 
     25 C          24.5797   -1.6998   -5.1368 C.2       3 UNK         0.4942 
     26 O          25.1699   -1.6544   -4.0543 O.2       3 UNK        -0.5208 
     27 CA         24.5295   -3.0203   -5.9249 C.3       3 UNK         0.0250 
     28 CB         25.7640   -3.1510   -6.8318 C.3       3 UNK        -0.1990 
     29 N          24.4874   -4.1702   -5.0213 N.am      3 UNK        -0.4232 
     30 C          23.4578   -4.4789   -4.2158 C.2       2 UNK         0.4993 
     31 O          22.3612   -3.9196   -4.2653 O.2       2 UNK        -0.5286 
     32 CA         23.6837   -5.5898   -3.1704 C.3       2 UNK         0.0209 
     33 CB         23.1025   -6.9249   -3.6636 C.3       2 UNK        -0.1931 
     34 N          25.1016   -5.7707   -2.8537 N.am      2 UNK        -0.4546 
     35 C          25.8470   -4.9011   -2.1569 C.2       1 UNK         0.5154 
     36 O          25.3601   -3.9942   -1.4804 O.2       1 UNK        -0.5181 
     37 C          28.2971    1.6934   -5.4989 C.2       5 UNK         0.5014 
     38 O          27.9695    1.0738   -6.5132 O.2       5 UNK        -0.5248 
     39 N          29.3225    2.5579   -5.4707 N.am      6 UNK        -0.4434 
     40 CA         30.3065    2.7710   -6.5394 C.3       6 UNK         0.0363 
     41 CB         31.2900    3.8717   -6.1132 C.3       6 UNK        -0.1936 
     42 C          29.7358    3.0756   -7.9324 C.2       6 UNK         0.5081 
     43 O          30.3404    2.6650   -8.9224 O.2       6 UNK        -0.5248 
     44 N          28.5757    3.7420   -7.9847 N.am      7 UNK        -0.4718 
     45 CA         27.8425    4.0498   -9.2153 C.3       7 UNK         0.0273 
     46 CB         26.6841    5.0031   -8.8798 C.3       7 UNK        -0.1935 
     47 C          27.3134    2.8082   -9.9592 C.2       7 UNK         0.5018 
     48 O          27.1152    2.8845  -11.1725 O.2       7 UNK        -0.5186 
     49 N          27.0899    1.7053   -9.2323 N.am      8 UNK        -0.4240 
     50 CA         26.5914    0.4372   -9.7662 C.3       8 UNK         0.0235 
     51 CB         25.2977    0.0655   -9.0263 C.3       8 UNK        -0.2000 
     52 C          27.6347   -0.6837   -9.6388 C.2       8 UNK         0.4941 
     53 O          27.7576   -1.4950  -10.5565 O.2       8 UNK        -0.5273 
     54 N          28.3683   -0.7155   -8.5173 N.am      9 UNK        -0.4262 
     55 CA         29.3953   -1.7130   -8.2076 C.3       9 UNK         0.0264 
     56 CB         29.6684   -1.7022   -6.6930 C.3       9 UNK        -0.1955 
     57 C          30.7079   -1.5135   -8.9862 C.2       9 UNK         0.5031 
     58 O          31.4753   -2.4709   -9.0944 O.2       9 UNK        -0.5390 
     59 N          30.9453   -0.2952   -9.5019 N.am      10 UNK        -0.4204 
     60 CA         32.1341    0.1367  -10.2480 C.3       10 UNK         0.0237 
     61 CB         32.2297   -0.5915  -11.6065 C.3       10 UNK        -0.1985 
     62 C          33.4190    0.0272   -9.4049 C.2       10 UNK         0.4970 
     63 O          34.3796   -0.6261   -9.8171 O.2       10 UNK        -0.4914 
     64 N          33.3993    0.6656   -8.2270 N.am      11 UNK        -0.4285 
     65 CA         34.5121    0.6838   -7.2603 C.3       11 UNK         0.1007 
     66 C          35.7905    1.4323   -7.7432 C.2       11 UNK         0.5703 
     67 N          35.7223    2.2796   -8.7637 N.am      11 UNK        -0.7361 
     68 O          36.8648    1.2365   -7.1798 O.2       11 UNK        -0.4986 
     69 C69        34.0709    1.2245   -5.8742 C.3       12 UNK        -0.0947 
     70 S70        32.6884    0.2994   -5.1297 S.3       12 UNK        -0.2240 
     71 C71        32.7663    0.9415   -3.4286 C.3       12 UNK         0.0194 
     72 H72        27.6634   -8.2088   -5.4732 H         1 UNK         0.0906 
     73 H73        29.1440   -7.2770   -5.7107 H         1 UNK         0.0906 
     74 H74        28.9113   -8.1990   -4.2242 H         1 UNK         0.0906 
     75 H75        28.3607   -6.9025   -2.5038 H         1 UNK         0.3140 
     76 H76        27.6899   -5.2752   -1.1982 H         1 UNK         0.1085 
     77 H77        27.7342   -2.8993   -1.9868 H         1 UNK         0.0836 
     78 H78        27.7669   -3.4259   -3.6423 H         1 UNK         0.0836 
     79 H79        29.5461   -2.9743   -0.3360 H         1 UNK         0.0731 
     80 H80        31.2394   -3.1380   -0.7171 H         1 UNK         0.0731 
     81 H81        32.1622   -1.5976   -2.6619 H         1 UNK         0.1312 
     82 H82        30.8000    2.4456   -2.2704 H         1 UNK         0.1406 
     83 H83        28.6609   -0.7306   -0.3374 H         1 UNK         0.1631 
     84 H84        29.1030    2.9758   -0.6318 H         1 UNK         0.0717 
     85 H85        28.4754    1.7232    0.4027 H         1 UNK         0.0717 
     86 H86        26.8755    3.4047   -3.4944 H         1 UNK         0.0934 
     87 H87        28.5332    3.0852   -3.0796 H         1 UNK         0.0934 
     88 H88        28.1010    0.6061   -3.7222 H         1 UNK         0.0739 
     89 H89        26.0298   -0.0511   -4.0778 H         1 UNK         0.3093 
     90 H90        23.5166    0.5816   -4.0919 H         1 UNK         0.0818 
     91 H91        21.8131    0.9283   -5.8655 H         1 UNK         0.0819 
     92 H92        22.5866    2.4455   -5.4475 H         1 UNK         0.0819 
     93 H93        23.0362    1.6205   -6.9333 H         1 UNK         0.0819 
     94 H94        23.5527   -0.7686   -6.6079 H         1 UNK         0.3041 
     95 H95        23.6290   -3.0365   -6.5424 H         1 UNK         0.0784 
     96 H96        25.7450   -4.0829   -7.3971 H         1 UNK         0.0793 
     97 H97        25.8180   -2.3378   -7.5532 H         1 UNK         0.0793 
     98 H98        26.6887   -3.1334   -6.2538 H         1 UNK         0.0793 
     99 H99        25.3605   -4.6789   -4.9138 H         1 UNK         0.3024 
    100 H100       23.1579   -5.2951   -2.2592 H         1 UNK         0.1171 
    101 H101       23.5952   -7.2687   -4.5740 H         1 UNK         0.0786 
    102 H102       22.0386   -6.8281   -3.8851 H         1 UNK         0.0786 
    103 H103       23.2054   -7.7053   -2.9094 H         1 UNK         0.0786 
    104 H104       25.5956   -6.4838   -3.3712 H         1 UNK         0.2977 
    105 H105       29.5135    3.0367   -4.6042 H         1 UNK         0.3127 
    106 H106       30.8585    1.8373   -6.6397 H         1 UNK         0.0770 
    107 H107       30.7852    4.8272   -5.9655 H         1 UNK         0.0814 
    108 H108       32.0595    4.0247   -6.8714 H         1 UNK         0.0814 
    109 H109       31.7998    3.6146   -5.1850 H         1 UNK         0.0814 
    110 H110       28.1412    4.0125   -7.1139 H         1 UNK         0.2983 
    111 H111       28.5283    4.5639   -9.8925 H         1 UNK         0.0947 
    112 H112       26.1271    5.2732   -9.7782 H         1 UNK         0.0806 
    113 H113       27.0473    5.9300   -8.4357 H         1 UNK         0.0806 
    114 H114       25.9781    4.5489   -8.1826 H         1 UNK         0.0806 
    115 H115       27.3071    1.7279   -8.2400 H         1 UNK         0.3000 
    116 H116       26.3539    0.5349  -10.8278 H         1 UNK         0.0850 
    117 H117       25.4636    0.0042   -7.9512 H         1 UNK         0.0810 
    118 H118       24.5185    0.8078   -9.1999 H         1 UNK         0.0810 
    119 H119       24.9114   -0.8969   -9.3647 H         1 UNK         0.0810 
    120 H120       28.1864   -0.0259   -7.7863 H         1 UNK         0.3040 
    121 H121       29.0022   -2.6966   -8.4737 H         1 UNK         0.0766 
    122 H122       28.7585   -1.8753   -6.1187 H         1 UNK         0.0812 
    123 H123       30.0909   -0.7516   -6.3672 H         1 UNK         0.0812 
    124 H124       30.3783   -2.4830   -6.4167 H         1 UNK         0.0812 
    125 H125       30.2623    0.4327   -9.3308 H         1 UNK         0.3205 
    126 H126       31.9976    1.1978  -10.4614 H         1 UNK         0.0754 
    127 H127       33.0518   -0.1951  -12.2036 H         1 UNK         0.0769 
    128 H128       31.3163   -0.4647  -12.1879 H         1 UNK         0.0769 
    129 H129       32.4036   -1.6613  -11.4859 H         1 UNK         0.0769 
    130 H130       32.5719    1.1783   -7.9652 H         1 UNK         0.2981 
    131 H131       34.8155   -0.3553   -7.1188 H         1 UNK         0.0541 
    132 H132       36.5583    2.7537   -9.0669 H         1 UNK         0.3459 
    133 H133       34.8477    2.4489   -9.2327 H         1 UNK         0.3459 
    134 H134       34.9076    1.1864   -5.1736 H         1 UNK         0.0612 
    135 H135       33.7839    2.2742   -5.9496 H         1 UNK         0.0612 
    136 H136       32.8031    2.0313   -3.4617 H         1 UNK         0.0624 
    137 H137       33.6976    0.6136   -2.9646 H         1 UNK         0.0624 
@<TRIPOS>BOND
     1    1    2 1    
     2    1   72 1    
     3    1   73 1    
     4    1   74 1    
     5    2    3 2    
     6    2    4 am   BACKBONE|DICT|INTERRES
     7    4    5 1    
     8    4   75 1    
     9    5    6 1    
    10    5   35 1    
    11    5   76 1    
    12    6    7 1    
    13    6   77 1    
    14    6   78 1    
    15    7    8 1    
    16    8    9 1    
    17    8   79 1    
    18    8   80 1    
    19    9   10 ar   
    20    9   14 ar   
    21   10   11 ar   
    22   10   81 1    
    23   11   12 ar   
    24   11   71 1    
    25   12   13 ar   
    26   12   82 1    
    27   13   14 ar   
    28   13   15 1    
    29   14   83 1    
    30   15   16 1    
    31   15   84 1    
    32   15   85 1    
    33   16   17 1    
    34   17   18 1    
    35   17   86 1    
    36   17   87 1    
    37   18   19 1    
    38   18   37 1    
    39   18   88 1    
    40   19   20 am   BACKBONE|DICT|INTERRES
    41   19   89 1    
    42   20   21 2    
    43   20   22 1    
    44   22   23 1    
    45   22   24 1    
    46   22   90 1    
    47   23   91 1    
    48   23   92 1    
    49   23   93 1    
    50   24   25 am   BACKBONE|DICT|INTERRES
    51   24   94 1    
    52   25   26 2    
    53   25   27 1    
    54   27   28 1    
    55   27   29 1    
    56   27   95 1    
    57   28   96 1    
    58   28   97 1    
    59   28   98 1    
    60   29   30 am   BACKBONE|DICT|INTERRES
    61   29   99 1    
    62   30   31 2    
    63   30   32 1    
    64   32   33 1    
    65   32   34 1    
    66   32  100 1    
    67   33  101 1    
    68   33  102 1    
    69   33  103 1    
    70   34   35 am   BACKBONE|DICT|INTERRES
    71   34  104 1    
    72   35   36 2    
    73   37   38 2    
    74   37   39 am   BACKBONE|DICT|INTERRES
    75   39   40 1    
    76   39  105 1    
    77   40   41 1    
    78   40   42 1    
    79   40  106 1    
    80   41  107 1    
    81   41  108 1    
    82   41  109 1    
    83   42   43 2    
    84   42   44 am   BACKBONE|DICT|INTERRES
    85   44   45 1    
    86   44  110 1    
    87   45   46 1    
    88   45   47 1    
    89   45  111 1    
    90   46  112 1    
    91   46  113 1    
    92   46  114 1    
    93   47   48 2    
    94   47   49 am   BACKBONE|DICT|INTERRES
    95   49   50 1    
    96   49  115 1    
    97   50   51 1    
    98   50   52 1    
    99   50  116 1    
   100   51  117 1    
   101   51  118 1    
   102   51  119 1    
   103   52   53 2    
   104   52   54 am   BACKBONE|DICT|INTERRES
   105   54   55 1    
   106   54  120 1    
   107   55   56 1    
   108   55   57 1    
   109   55  121 1    
   110   56  122 1    
   111   56  123 1    
   112   56  124 1    
   113   57   58 2    
   114   57   59 am   BACKBONE|DICT|INTERRES
   115   59   60 1    
   116   59  125 1    
   117   60   61 1    
   118   60   62 1    
   119   60  126 1    
   120   61  127 1    
   121   61  128 1    
   122   61  129 1    
   123   62   63 2    
   124   62   64 am   BACKBONE|DICT|INTERRES
   125   64   65 1    
   126   64  130 1    
   127   65   66 1    
   128   65   69 1    
   129   65  131 1    
   130   66   67 am   BACKBONE|DICT|INTERRES
   131   66   68 2    
   132   67  132 1    
   133   67  133 1    
   134   69   70 1    
   135   69  134 1    
   136   69  135 1    
   137   70   71 1    
   138   71  136 1    
   139   71  137 1    
@<TRIPOS>SUBSTRUCTURE
     1 UNK         1 GROUP             0       ****    0 ROOT    
