@<TRIPOS>MOLECULE
3R137
137   139    1
SMALL
USER_CHARGES


@<TRIPOS>ATOM
      1 CA         26.7873   -1.6317    4.3935 C.3       0 UNK        -0.2020 
      2 C          27.0805   -1.9786    2.9413 C.2       0 UNK         0.4855 
      3 O          27.0294   -3.1529    2.5741 O.2       0 UNK        -0.5197 
      4 N          27.3909   -0.9657    2.1201 N.am      1 UNK        -0.4892 
      5 CA         27.6578   -1.0663    0.6797 C.3       1 UNK         0.0835 
      6 C6         28.9337   -1.9019    0.3627 C.3       12 UNK        -0.0855 
      7 S7         29.6674   -1.4505   -1.2460 S.3       12 UNK        -0.2931 
      8 C8         30.4552   -3.0077   -1.7687 C.3       12 UNK         0.0378 
      9 C9         30.4313   -3.1410   -3.2842 C.ar      12 UNK        -0.0802 
     10 C10        31.2283   -2.3115   -4.0782 C.ar      12 UNK        -0.0944 
     11 C11        31.1742   -2.3995   -5.4720 C.ar      12 UNK        -0.0787 
     12 C12        30.3317   -3.3407   -6.0743 C.ar      12 UNK        -0.0862 
     13 C13        29.5362   -4.1811   -5.2897 C.ar      12 UNK        -0.0733 
     14 C14        29.5941   -4.0785   -3.8964 C.ar      12 UNK        -0.0832 
     15 C15        28.6163   -5.2086   -5.9332 C.3       12 UNK         0.0240 
     16 S16        26.8904   -4.6252   -6.0099 S.3       12 UNK        -0.2522 
     17 C17        26.7265   -4.0373   -7.7309 C.3       12 UNK        -0.0967 
     18 CA         26.2606   -2.5684   -7.8984 C.3       5 UNK         0.0660 
     19 N          25.0430   -2.2389   -7.1510 N.am      5 UNK        -0.4015 
     20 C          23.9749   -1.6369   -7.6947 C.2       4 UNK         0.4946 
     21 O          23.8654   -1.3824   -8.8952 O.2       4 UNK        -0.5353 
     22 CA         22.8260   -1.2317   -6.7536 C.3       4 UNK         0.0277 
     23 CB         21.8358   -2.3957   -6.5855 C.3       4 UNK        -0.1981 
     24 N          23.2557   -0.7666   -5.4334 N.am      4 UNK        -0.4209 
     25 C          24.0756    0.2677   -5.1958 C.2       3 UNK         0.4942 
     26 O          24.5923    0.9607   -6.0722 O.2       3 UNK        -0.5208 
     27 CA         24.4137    0.5529   -3.7219 C.3       3 UNK         0.0250 
     28 CB         23.3522    1.4758   -3.1025 C.3       3 UNK        -0.1990 
     29 N          24.5837   -0.6327   -2.8689 N.am      3 UNK        -0.4232 
     30 C          25.3057   -1.7279   -3.1492 C.2       2 UNK         0.4993 
     31 O          25.8697   -1.9251   -4.2273 O.2       2 UNK        -0.5286 
     32 CA         25.4452   -2.7518   -2.0136 C.3       2 UNK         0.0209 
     33 CB         25.7540   -4.1655   -2.5343 C.3       2 UNK        -0.1931 
     34 N          26.5212   -2.3297   -1.1197 N.am      2 UNK        -0.4546 
     35 C          26.3815   -1.4786   -0.0963 C.2       1 UNK         0.5154 
     36 O          25.2932   -0.9946    0.2284 O.2       1 UNK        -0.5181 
     37 C          27.3792   -1.5564   -7.6096 C.2       5 UNK         0.5014 
     38 O          28.1494   -1.2604   -8.5242 O.2       5 UNK        -0.5248 
     39 N          27.4484   -1.0130   -6.3848 N.am      6 UNK        -0.4434 
     40 CA         28.4858   -0.0673   -5.9717 C.3       6 UNK         0.0363 
     41 CB         28.4118    0.1914   -4.4619 C.3       6 UNK        -0.1936 
     42 C          28.4926    1.2409   -6.7708 C.2       6 UNK         0.5081 
     43 O          29.5653    1.6764   -7.1909 O.2       6 UNK        -0.5248 
     44 N          27.3068    1.8150   -7.0171 N.am      7 UNK        -0.4718 
     45 CA         27.1499    3.0252   -7.8296 C.3       7 UNK         0.0273 
     46 CB         25.7497    3.6158   -7.6005 C.3       7 UNK        -0.1935 
     47 C          27.3915    2.7840   -9.3306 C.2       7 UNK         0.5018 
     48 O          27.7402    3.7284  -10.0398 O.2       7 UNK        -0.5186 
     49 N          27.1933    1.5400   -9.7874 N.am      8 UNK        -0.4240 
     50 CA         27.3895    1.1275  -11.1752 C.3       8 UNK         0.0235 
     51 CB         26.5085   -0.0958  -11.4828 C.3       8 UNK        -0.2000 
     52 C          28.8665    0.8364  -11.4763 C.2       8 UNK         0.4941 
     53 O          29.4015    1.3769  -12.4451 O.2       8 UNK        -0.5273 
     54 N          29.4931   -0.0203  -10.6573 N.am      9 UNK        -0.4262 
     55 CA         30.8729   -0.4732  -10.8472 C.3       9 UNK         0.0264 
     56 CB         31.0541   -1.8614  -10.2115 C.3       9 UNK        -0.1955 
     57 C          31.9313    0.5305  -10.3559 C.2       9 UNK         0.5031 
     58 O          33.0345    0.5226  -10.9037 O.2       9 UNK        -0.5390 
     59 N          31.5836    1.3823   -9.3753 N.am      10 UNK        -0.4204 
     60 CA         32.3852    2.4949   -8.8433 C.3       10 UNK         0.0237 
     61 CB         32.4854    3.6265   -9.8885 C.3       10 UNK        -0.1985 
     62 C          33.7608    2.0523   -8.3040 C.2       10 UNK         0.4970 
     63 O          34.7977    2.4794   -8.8160 O.2       10 UNK        -0.4914 
     64 N          33.7351    1.1904   -7.2799 N.am      11 UNK        -0.4285 
     65 CA         34.9250    0.6141   -6.6241 C.3       11 UNK         0.1007 
     66 C          35.8032    1.6313   -5.8363 C.2       11 UNK         0.5703 
     67 N          35.3159    2.8234   -5.5116 N.am      11 UNK        -0.7361 
     68 O          36.9512    1.3312   -5.5169 O.2       11 UNK        -0.4986 
     69 C69        34.5648   -0.5974   -5.7191 C.3       12 UNK        -0.0947 
     70 S70        33.6728   -1.9209   -6.6032 S.3       12 UNK        -0.2240 
     71 C71        31.9520   -1.4108   -6.3245 C.3       12 UNK         0.0194 
     72 H72        27.4805   -2.1552    5.0515 H         1 UNK         0.0906 
     73 H73        26.8799   -0.5629    4.5858 H         1 UNK         0.0906 
     74 H74        25.7741   -1.9363    4.6543 H         1 UNK         0.0906 
     75 H75        27.3803   -0.0227    2.4849 H         1 UNK         0.3140 
     76 H76        27.8549   -0.0398    0.3653 H         1 UNK         0.1085 
     77 H77        29.6967   -1.7131    1.1196 H         1 UNK         0.0836 
     78 H78        28.7257   -2.9719    0.4168 H         1 UNK         0.0836 
     79 H79        31.4858   -3.0279   -1.4114 H         1 UNK         0.0731 
     80 H80        29.9538   -3.8605   -1.3092 H         1 UNK         0.0731 
     81 H81        31.8637   -1.5723   -3.6097 H         1 UNK         0.1312 
     82 H82        30.2761   -3.4020   -7.1525 H         1 UNK         0.1406 
     83 H83        28.9773   -4.7269   -3.2901 H         1 UNK         0.1631 
     84 H84        28.9764   -5.4869   -6.9244 H         1 UNK         0.0717 
     85 H85        28.6402   -6.1263   -5.3438 H         1 UNK         0.0717 
     86 H86        27.6591   -4.1978   -8.2749 H         1 UNK         0.0934 
     87 H87        26.0005   -4.6903   -8.2175 H         1 UNK         0.0934 
     88 H88        26.0584   -2.4571   -8.9656 H         1 UNK         0.0739 
     89 H89        25.0789   -2.3858   -6.1480 H         1 UNK         0.3093 
     90 H90        22.2987   -0.4017   -7.2287 H         1 UNK         0.0818 
     91 H91        20.9591   -2.0931   -6.0126 H         1 UNK         0.0819 
     92 H92        21.4799   -2.7480   -7.5549 H         1 UNK         0.0819 
     93 H93        22.2935   -3.2460   -6.0782 H         1 UNK         0.0819 
     94 H94        22.9023   -1.2767   -4.6373 H         1 UNK         0.3041 
     95 H95        25.3606    1.0916   -3.7095 H         1 UNK         0.0784 
     96 H96        23.2177    2.3763   -3.7039 H         1 UNK         0.0793 
     97 H97        22.3814    0.9840   -3.0296 H         1 UNK         0.0793 
     98 H98        23.6412    1.7988   -2.1021 H         1 UNK         0.0793 
     99 H99        24.2026   -0.5593   -1.9346 H         1 UNK         0.3024 
    100 H100       24.4997   -2.7964   -1.4678 H         1 UNK         0.1171 
    101 H101       25.7912   -4.8892   -1.7201 H         1 UNK         0.0786 
    102 H102       24.9875   -4.5005   -3.2344 H         1 UNK         0.0786 
    103 H103       26.7084   -4.2014   -3.0576 H         1 UNK         0.0786 
    104 H104       27.4583   -2.6098   -1.3758 H         1 UNK         0.2977 
    105 H105       26.8164   -1.3394   -5.6549 H         1 UNK         0.3127 
    106 H106       29.4354   -0.5500   -6.1750 H         1 UNK         0.0770 
    107 H107       27.5029    0.7207   -4.1860 H         1 UNK         0.0814 
    108 H108       29.2567    0.7947   -4.1280 H         1 UNK         0.0814 
    109 H109       28.4411   -0.7439   -3.9029 H         1 UNK         0.0814 
    110 H110       26.4565    1.3932   -6.6515 H         1 UNK         0.2983 
    111 H111       27.8875    3.7582   -7.4947 H         1 UNK         0.0947 
    112 H112       25.6267    4.5525   -8.1458 H         1 UNK         0.0806 
    113 H113       25.5755    3.8286   -6.5456 H         1 UNK         0.0806 
    114 H114       24.9659    2.9365   -7.9384 H         1 UNK         0.0806 
    115 H115       26.9491    0.8203   -9.1222 H         1 UNK         0.3000 
    116 H116       27.0683    1.9400  -11.8312 H         1 UNK         0.0850 
    117 H117       26.6112   -0.3953  -12.5266 H         1 UNK         0.0810 
    118 H118       25.4540    0.1218  -11.3106 H         1 UNK         0.0810 
    119 H119       26.7733   -0.9579  -10.8706 H         1 UNK         0.0810 
    120 H120       28.9771   -0.4349   -9.8808 H         1 UNK         0.3040 
    121 H121       31.0459   -0.5931  -11.9192 H         1 UNK         0.0766 
    122 H122       30.5341   -2.6233  -10.7921 H         1 UNK         0.0812 
    123 H123       30.6561   -1.9023   -9.2009 H         1 UNK         0.0812 
    124 H124       32.1057   -2.1495  -10.1689 H         1 UNK         0.0812 
    125 H125       30.6668    1.2832   -8.9515 H         1 UNK         0.3205 
    126 H126       31.8346    2.8938   -7.9901 H         1 UNK         0.0754 
    127 H127       33.0093    4.4914   -9.4795 H         1 UNK         0.0769 
    128 H128       31.4966    3.9639  -10.2002 H         1 UNK         0.0769 
    129 H129       33.0267    3.3095  -10.7806 H         1 UNK         0.0769 
    130 H130       32.8417    0.8936   -6.9210 H         1 UNK         0.2981 
    131 H131       35.5635    0.2371   -7.4255 H         1 UNK         0.0541 
    132 H132       34.3773    3.0816   -5.7685 H         1 UNK         0.3459 
    133 H133       35.8976    3.4720   -5.0051 H         1 UNK         0.3459 
    134 H134       35.4743   -1.0471   -5.3163 H         1 UNK         0.0612 
    135 H135       33.9841   -0.2783   -4.8517 H         1 UNK         0.0612 
    136 H136       31.4701   -1.2812   -7.2903 H         1 UNK         0.0624 
    137 H137       31.9100   -0.4294   -5.8514 H         1 UNK         0.0624 
@<TRIPOS>BOND
     1    1    2 1    
     2    1   72 1    
     3    1   73 1    
     4    1   74 1    
     5    2    3 2    
     6    2    4 am   BACKBONE|DICT|INTERRES
     7    4    5 1    
     8    4   75 1    
     9    5    6 1    
    10    5   35 1    
    11    5   76 1    
    12    6    7 1    
    13    6   77 1    
    14    6   78 1    
    15    7    8 1    
    16    8    9 1    
    17    8   79 1    
    18    8   80 1    
    19    9   10 ar   
    20    9   14 ar   
    21   10   11 ar   
    22   10   81 1    
    23   11   12 ar   
    24   11   71 1    
    25   12   13 ar   
    26   12   82 1    
    27   13   14 ar   
    28   13   15 1    
    29   14   83 1    
    30   15   16 1    
    31   15   84 1    
    32   15   85 1    
    33   16   17 1    
    34   17   18 1    
    35   17   86 1    
    36   17   87 1    
    37   18   19 1    
    38   18   37 1    
    39   18   88 1    
    40   19   20 am   BACKBONE|DICT|INTERRES
    41   19   89 1    
    42   20   21 2    
    43   20   22 1    
    44   22   23 1    
    45   22   24 1    
    46   22   90 1    
    47   23   91 1    
    48   23   92 1    
    49   23   93 1    
    50   24   25 am   BACKBONE|DICT|INTERRES
    51   24   94 1    
    52   25   26 2    
    53   25   27 1    
    54   27   28 1    
    55   27   29 1    
    56   27   95 1    
    57   28   96 1    
    58   28   97 1    
    59   28   98 1    
    60   29   30 am   BACKBONE|DICT|INTERRES
    61   29   99 1    
    62   30   31 2    
    63   30   32 1    
    64   32   33 1    
    65   32   34 1    
    66   32  100 1    
    67   33  101 1    
    68   33  102 1    
    69   33  103 1    
    70   34   35 am   BACKBONE|DICT|INTERRES
    71   34  104 1    
    72   35   36 2    
    73   37   38 2    
    74   37   39 am   BACKBONE|DICT|INTERRES
    75   39   40 1    
    76   39  105 1    
    77   40   41 1    
    78   40   42 1    
    79   40  106 1    
    80   41  107 1    
    81   41  108 1    
    82   41  109 1    
    83   42   43 2    
    84   42   44 am   BACKBONE|DICT|INTERRES
    85   44   45 1    
    86   44  110 1    
    87   45   46 1    
    88   45   47 1    
    89   45  111 1    
    90   46  112 1    
    91   46  113 1    
    92   46  114 1    
    93   47   48 2    
    94   47   49 am   BACKBONE|DICT|INTERRES
    95   49   50 1    
    96   49  115 1    
    97   50   51 1    
    98   50   52 1    
    99   50  116 1    
   100   51  117 1    
   101   51  118 1    
   102   51  119 1    
   103   52   53 2    
   104   52   54 am   BACKBONE|DICT|INTERRES
   105   54   55 1    
   106   54  120 1    
   107   55   56 1    
   108   55   57 1    
   109   55  121 1    
   110   56  122 1    
   111   56  123 1    
   112   56  124 1    
   113   57   58 2    
   114   57   59 am   BACKBONE|DICT|INTERRES
   115   59   60 1    
   116   59  125 1    
   117   60   61 1    
   118   60   62 1    
   119   60  126 1    
   120   61  127 1    
   121   61  128 1    
   122   61  129 1    
   123   62   63 2    
   124   62   64 am   BACKBONE|DICT|INTERRES
   125   64   65 1    
   126   64  130 1    
   127   65   66 1    
   128   65   69 1    
   129   65  131 1    
   130   66   67 am   BACKBONE|DICT|INTERRES
   131   66   68 2    
   132   67  132 1    
   133   67  133 1    
   134   69   70 1    
   135   69  134 1    
   136   69  135 1    
   137   70   71 1    
   138   71  136 1    
   139   71  137 1    
@<TRIPOS>SUBSTRUCTURE
     1 UNK         1 GROUP             0       ****    0 ROOT    
