@<TRIPOS>MOLECULE
3R137
137   139    1
SMALL
USER_CHARGES


@<TRIPOS>ATOM
      1 CA         28.0887   -3.7793    2.0076 C.3       0 UNK        -0.2020 
      2 C          27.9826   -2.4166    1.3396 C.2       0 UNK         0.4855 
      3 O          27.4485   -1.4824    1.9375 O.2       0 UNK        -0.5197 
      4 N          28.4916   -2.2976    0.1061 N.am      1 UNK        -0.4892 
      5 CA         28.4695   -1.0680   -0.6990 C.3       1 UNK         0.0835 
      6 C6         29.4324   -1.1469   -1.9106 C.3       12 UNK        -0.0855 
      7 S7         31.1850   -1.3092   -1.4131 S.3       12 UNK        -0.2931 
      8 C8         31.4867   -3.1093   -1.4554 C.3       12 UNK         0.0378 
      9 C9         31.4453   -3.6723   -2.8684 C.ar      12 UNK        -0.0802 
     10 C10        32.5655   -3.5706   -3.6985 C.ar      12 UNK        -0.0944 
     11 C11        32.5318   -4.0607   -5.0120 C.ar      12 UNK        -0.0787 
     12 C12        31.3640   -4.6806   -5.4696 C.ar      12 UNK        -0.0862 
     13 C13        30.2390   -4.7949   -4.6474 C.ar      12 UNK        -0.0733 
     14 C14        30.2903   -4.2976   -3.3439 C.ar      12 UNK        -0.0832 
     15 C15        28.9557   -5.4314   -5.1681 C.3       12 UNK         0.0240 
     16 S16        28.2836   -4.5767   -6.6322 S.3       12 UNK        -0.2522 
     17 C17        28.3647   -2.8267   -6.1266 C.3       12 UNK        -0.0967 
     18 CA         27.5779   -1.9273   -7.1054 C.3       5 UNK         0.0660 
     19 N          26.1308   -2.1159   -6.9824 N.am      5 UNK        -0.4015 
     20 C          25.2137   -1.5751   -7.7973 C.2       4 UNK         0.4946 
     21 O          25.4871   -0.8912   -8.7822 O.2       4 UNK        -0.5353 
     22 CA         23.7524   -1.7256   -7.3708 C.3       4 UNK         0.0277 
     23 CB         23.3227   -3.1980   -7.2434 C.3       4 UNK        -0.1981 
     24 N          23.6253   -1.0441   -6.0896 N.am      4 UNK        -0.4209 
     25 C          22.7366   -0.1071   -5.7613 C.2       3 UNK         0.4942 
     26 O          21.7652    0.1881   -6.4588 O.2       3 UNK        -0.5208 
     27 CA         23.0092    0.6464   -4.4390 C.3       3 UNK         0.0250 
     28 CB         21.7940    1.4693   -3.9718 C.3       3 UNK        -0.1990 
     29 N          23.4623   -0.2029   -3.3267 N.am      3 UNK        -0.4232 
     30 C          24.6458   -0.8225   -3.2060 C.2       2 UNK         0.4993 
     31 O          25.5157   -0.8271   -4.0846 O.2       2 UNK        -0.5286 
     32 CA         24.8496   -1.6399   -1.9202 C.3       2 UNK         0.0209 
     33 CB         24.2911   -3.0601   -2.1083 C.3       2 UNK        -0.1931 
     34 N          26.2531   -1.7394   -1.5133 N.am      2 UNK        -0.4546 
     35 C          27.0384   -0.7120   -1.1555 C.2       1 UNK         0.5154 
     36 O          26.6678    0.4626   -1.1351 O.2       1 UNK        -0.5181 
     37 C          27.9822   -0.4511   -6.9397 C.2       5 UNK         0.5014 
     38 O          28.7550    0.0503   -7.7563 O.2       5 UNK        -0.5248 
     39 N          27.4268    0.2343   -5.9283 N.am      6 UNK        -0.4434 
     40 CA         27.6616    1.6623   -5.6970 C.3       6 UNK         0.0363 
     41 CB         27.1630    2.0539   -4.2983 C.3       6 UNK        -0.1936 
     42 C          27.0249    2.5590   -6.7732 C.2       6 UNK         0.5081 
     43 O          27.5781    3.6158   -7.0740 O.2       6 UNK        -0.5248 
     44 N          25.9005    2.1169   -7.3566 N.am      7 UNK        -0.4718 
     45 CA         25.2276    2.7958   -8.4691 C.3       7 UNK         0.0273 
     46 CB         23.7933    2.2641   -8.6173 C.3       7 UNK        -0.1935 
     47 C          26.0095    2.6597   -9.7868 C.2       7 UNK         0.5018 
     48 O          26.1157    3.6337  -10.5322 O.2       7 UNK        -0.5186 
     49 N          26.5780    1.4695  -10.0272 N.am      8 UNK        -0.4240 
     50 CA         27.4886    1.1782  -11.1390 C.3       8 UNK         0.0235 
     51 CB         27.5949   -0.3476  -11.3022 C.3       8 UNK        -0.2000 
     52 C          28.8928    1.7917  -10.9668 C.2       8 UNK         0.4941 
     53 O          29.6529    1.8148  -11.9355 O.2       8 UNK        -0.5273 
     54 N          29.2146    2.2497   -9.7473 N.am      9 UNK        -0.4262 
     55 CA         30.5069    2.7692   -9.2873 C.3       9 UNK         0.0264 
     56 CB         30.8946    4.0613  -10.0377 C.3       9 UNK        -0.1955 
     57 C          31.6183    1.7009   -9.2984 C.2       9 UNK         0.5031 
     58 O          32.7815    2.0216   -9.5524 O.2       9 UNK        -0.5390 
     59 N          31.2490    0.4481   -8.9995 N.am      10 UNK        -0.4204 
     60 CA         32.1765   -0.6657   -8.8114 C.3       10 UNK         0.0237 
     61 CB         31.3961   -1.9897   -8.8528 C.3       10 UNK        -0.1985 
     62 C          32.9172   -0.4979   -7.4761 C.2       10 UNK         0.4970 
     63 O          32.2929   -0.1042   -6.4884 O.2       10 UNK        -0.4914 
     64 N          34.2271   -0.7812   -7.4807 N.am      11 UNK        -0.4285 
     65 CA         35.1555   -0.5596   -6.3547 C.3       11 UNK         0.1007 
     66 C          35.3732    0.9440   -5.9855 C.2       11 UNK         0.5703 
     67 N          34.9719    1.9020   -6.8143 N.am      11 UNK        -0.7361 
     68 O          35.9580    1.2545   -4.9502 O.2       11 UNK        -0.4986 
     69 C69        34.8311   -1.4502   -5.1163 C.3       12 UNK        -0.0947 
     70 S70        35.2538   -3.2094   -5.3630 S.3       12 UNK        -0.2240 
     71 C71        33.7019   -3.9403   -5.9925 C.3       12 UNK         0.0194 
     72 H72        28.6426   -3.6963    2.9422 H         1 UNK         0.0906 
     73 H73        28.5979   -4.5070    1.3763 H         1 UNK         0.0906 
     74 H74        27.0947   -4.1640    2.2342 H         1 UNK         0.0906 
     75 H75        28.9338   -3.0960   -0.3221 H         1 UNK         0.3140 
     76 H76        28.8047   -0.2489   -0.0580 H         1 UNK         0.1085 
     77 H77        29.3598   -0.2329   -2.5038 H         1 UNK         0.0836 
     78 H78        29.1498   -1.9531   -2.5865 H         1 UNK         0.0836 
     79 H79        32.4681   -3.3043   -1.0204 H         1 UNK         0.0731 
     80 H80        30.7724   -3.6241   -0.8130 H         1 UNK         0.0731 
     81 H81        33.4521   -3.0927   -3.3093 H         1 UNK         0.1312 
     82 H82        31.3193   -5.0586   -6.4822 H         1 UNK         0.1406 
     83 H83        29.4239   -4.3854   -2.7032 H         1 UNK         0.1631 
     84 H84        28.1868   -5.4450   -4.3941 H         1 UNK         0.0717 
     85 H85        29.1513   -6.4732   -5.4249 H         1 UNK         0.0717 
     86 H86        27.9890   -2.7195   -5.1068 H         1 UNK         0.0934 
     87 H87        29.4175   -2.5387   -6.0941 H         1 UNK         0.0934 
     88 H88        27.8545   -2.2078   -8.1246 H         1 UNK         0.0739 
     89 H89        25.8261   -2.6739   -6.1991 H         1 UNK         0.3093 
     90 H90        23.1297   -1.2403   -8.1258 H         1 UNK         0.0818 
     91 H91        23.4805   -3.7324   -8.1811 H         1 UNK         0.0819 
     92 H92        23.8736   -3.7273   -6.4655 H         1 UNK         0.0819 
     93 H93        22.2620   -3.2731   -7.0034 H         1 UNK         0.0819 
     94 H94        24.3984   -1.1577   -5.4367 H         1 UNK         0.3041 
     95 H95        23.8117    1.3528   -4.6585 H         1 UNK         0.0784 
     96 H96        21.4812    2.1806   -4.7376 H         1 UNK         0.0793 
     97 H97        20.9377    0.8313   -3.7494 H         1 UNK         0.0793 
     98 H98        22.0251    2.0476   -3.0770 H         1 UNK         0.0793 
     99 H99        22.7964   -0.3135   -2.5752 H         1 UNK         0.3024 
    100 H100       24.3081   -1.1480   -1.1089 H         1 UNK         0.1171 
    101 H101       23.2352   -3.0366   -2.3818 H         1 UNK         0.0786 
    102 H102       24.8188   -3.5997   -2.8963 H         1 UNK         0.0786 
    103 H103       24.3708   -3.6435   -1.1907 H         1 UNK         0.0786 
    104 H104       26.6494   -2.6665   -1.4900 H         1 UNK         0.2977 
    105 H105       26.7971   -0.2368   -5.2806 H         1 UNK         0.3127 
    106 H106       28.7403    1.8326   -5.7276 H         1 UNK         0.0770 
    107 H107       26.0895    1.9027   -4.1906 H         1 UNK         0.0814 
    108 H108       27.3661    3.1054   -4.0918 H         1 UNK         0.0814 
    109 H109       27.6612    1.4710   -3.5242 H         1 UNK         0.0814 
    110 H110       25.5359    1.2185   -7.0788 H         1 UNK         0.2983 
    111 H111       25.1680    3.8606   -8.2318 H         1 UNK         0.0947 
    112 H112       23.2711    2.7771   -9.4261 H         1 UNK         0.0806 
    113 H113       23.2143    2.4252   -7.7079 H         1 UNK         0.0806 
    114 H114       23.7725    1.1982   -8.8441 H         1 UNK         0.0806 
    115 H115       26.3625    0.6927   -9.4063 H         1 UNK         0.3000 
    116 H116       27.0594    1.5946  -12.0527 H         1 UNK         0.0850 
    117 H117       28.2340   -0.6094  -12.1465 H         1 UNK         0.0810 
    118 H118       26.6180   -0.7963  -11.4832 H         1 UNK         0.0810 
    119 H119       28.0184   -0.8175  -10.4134 H         1 UNK         0.0810 
    120 H120       28.5191    2.1332   -9.0225 H         1 UNK         0.3040 
    121 H121       30.3614    3.0333   -8.2386 H         1 UNK         0.0766 
    122 H122       31.1318    3.8679  -11.0841 H         1 UNK         0.0812 
    123 H123       31.7734    4.5244   -9.5876 H         1 UNK         0.0812 
    124 H124       30.0896    4.7953  -10.0047 H         1 UNK         0.0812 
    125 H125       30.2910    0.2950   -8.6862 H         1 UNK         0.3205 
    126 H126       32.8959   -0.6586   -9.6330 H         1 UNK         0.0754 
    127 H127       30.7077   -2.0772   -8.0128 H         1 UNK         0.0769 
    128 H128       32.0714   -2.8444   -8.8132 H         1 UNK         0.0769 
    129 H129       30.8148   -2.0794   -9.7706 H         1 UNK         0.0769 
    130 H130       34.6580   -1.0876   -8.3410 H         1 UNK         0.2981 
    131 H131       36.1323   -0.8706   -6.7264 H         1 UNK         0.0541 
    132 H132       35.1375    2.8643   -6.5663 H         1 UNK         0.3459 
    133 H133       34.4916    1.6791   -7.6732 H         1 UNK         0.3459 
    134 H134       33.7890   -1.3458   -4.8174 H         1 UNK         0.0612 
    135 H135       35.4123   -1.1351   -4.2486 H         1 UNK         0.0612 
    136 H136       33.3769   -3.3721   -6.8623 H         1 UNK         0.0624 
    137 H137       33.9418   -4.9398   -6.3579 H         1 UNK         0.0624 
@<TRIPOS>BOND
     1    1    2 1    
     2    1   72 1    
     3    1   73 1    
     4    1   74 1    
     5    2    3 2    
     6    2    4 am   BACKBONE|DICT|INTERRES
     7    4    5 1    
     8    4   75 1    
     9    5    6 1    
    10    5   35 1    
    11    5   76 1    
    12    6    7 1    
    13    6   77 1    
    14    6   78 1    
    15    7    8 1    
    16    8    9 1    
    17    8   79 1    
    18    8   80 1    
    19    9   10 ar   
    20    9   14 ar   
    21   10   11 ar   
    22   10   81 1    
    23   11   12 ar   
    24   11   71 1    
    25   12   13 ar   
    26   12   82 1    
    27   13   14 ar   
    28   13   15 1    
    29   14   83 1    
    30   15   16 1    
    31   15   84 1    
    32   15   85 1    
    33   16   17 1    
    34   17   18 1    
    35   17   86 1    
    36   17   87 1    
    37   18   19 1    
    38   18   37 1    
    39   18   88 1    
    40   19   20 am   BACKBONE|DICT|INTERRES
    41   19   89 1    
    42   20   21 2    
    43   20   22 1    
    44   22   23 1    
    45   22   24 1    
    46   22   90 1    
    47   23   91 1    
    48   23   92 1    
    49   23   93 1    
    50   24   25 am   BACKBONE|DICT|INTERRES
    51   24   94 1    
    52   25   26 2    
    53   25   27 1    
    54   27   28 1    
    55   27   29 1    
    56   27   95 1    
    57   28   96 1    
    58   28   97 1    
    59   28   98 1    
    60   29   30 am   BACKBONE|DICT|INTERRES
    61   29   99 1    
    62   30   31 2    
    63   30   32 1    
    64   32   33 1    
    65   32   34 1    
    66   32  100 1    
    67   33  101 1    
    68   33  102 1    
    69   33  103 1    
    70   34   35 am   BACKBONE|DICT|INTERRES
    71   34  104 1    
    72   35   36 2    
    73   37   38 2    
    74   37   39 am   BACKBONE|DICT|INTERRES
    75   39   40 1    
    76   39  105 1    
    77   40   41 1    
    78   40   42 1    
    79   40  106 1    
    80   41  107 1    
    81   41  108 1    
    82   41  109 1    
    83   42   43 2    
    84   42   44 am   BACKBONE|DICT|INTERRES
    85   44   45 1    
    86   44  110 1    
    87   45   46 1    
    88   45   47 1    
    89   45  111 1    
    90   46  112 1    
    91   46  113 1    
    92   46  114 1    
    93   47   48 2    
    94   47   49 am   BACKBONE|DICT|INTERRES
    95   49   50 1    
    96   49  115 1    
    97   50   51 1    
    98   50   52 1    
    99   50  116 1    
   100   51  117 1    
   101   51  118 1    
   102   51  119 1    
   103   52   53 2    
   104   52   54 am   BACKBONE|DICT|INTERRES
   105   54   55 1    
   106   54  120 1    
   107   55   56 1    
   108   55   57 1    
   109   55  121 1    
   110   56  122 1    
   111   56  123 1    
   112   56  124 1    
   113   57   58 2    
   114   57   59 am   BACKBONE|DICT|INTERRES
   115   59   60 1    
   116   59  125 1    
   117   60   61 1    
   118   60   62 1    
   119   60  126 1    
   120   61  127 1    
   121   61  128 1    
   122   61  129 1    
   123   62   63 2    
   124   62   64 am   BACKBONE|DICT|INTERRES
   125   64   65 1    
   126   64  130 1    
   127   65   66 1    
   128   65   69 1    
   129   65  131 1    
   130   66   67 am   BACKBONE|DICT|INTERRES
   131   66   68 2    
   132   67  132 1    
   133   67  133 1    
   134   69   70 1    
   135   69  134 1    
   136   69  135 1    
   137   70   71 1    
   138   71  136 1    
   139   71  137 1    
@<TRIPOS>SUBSTRUCTURE
     1 UNK         1 GROUP             0       ****    0 ROOT    
