@<TRIPOS>MOLECULE
3R137
137   139    1
SMALL
USER_CHARGES


@<TRIPOS>ATOM
      1 CA         24.8236   -4.1619   -1.7620 C.3       0 UNK        -0.2020 
      2 C          26.0771   -4.4917   -2.5652 C.2       0 UNK         0.4855 
      3 O          26.0363   -5.3867   -3.4058 O.2       0 UNK        -0.5197 
      4 N          27.2131   -3.8200   -2.3390 N.am      1 UNK        -0.4892 
      5 CA         27.4359   -2.7515   -1.3593 C.3       1 UNK         0.0835 
      6 C6         28.9291   -2.6402   -0.9592 C.3       12 UNK        -0.0855 
      7 S7         29.5830   -4.2300   -0.3345 S.3       12 UNK        -0.2931 
      8 C8         31.1859   -4.3891   -1.1961 C.3       12 UNK         0.0378 
      9 C9         31.1046   -4.2286   -2.7122 C.ar      12 UNK        -0.0802 
     10 C10        32.0122   -3.3880   -3.3617 C.ar      12 UNK        -0.0944 
     11 C11        31.9707   -3.2267   -4.7484 C.ar      12 UNK        -0.0787 
     12 C12        30.9961   -3.9010   -5.4902 C.ar      12 UNK        -0.0862 
     13 C13        30.0768   -4.7467   -4.8556 C.ar      12 UNK        -0.0733 
     14 C14        30.1526   -4.9211   -3.4688 C.ar      12 UNK        -0.0832 
     15 C15        29.0330   -5.5219   -5.6563 C.3       12 UNK         0.0240 
     16 S16        28.1842   -4.5334   -6.9333 S.3       12 UNK        -0.2522 
     17 C17        27.1486   -3.4082   -5.9366 C.3       12 UNK        -0.0967 
     18 CA         26.8256   -2.1060   -6.7066 C.3       5 UNK         0.0660 
     19 N          25.5252   -1.5247   -6.3444 N.am      5 UNK        -0.4015 
     20 C          24.9475   -0.5011   -6.9893 C.2       4 UNK         0.4946 
     21 O          25.5117    0.1508   -7.8686 O.2       4 UNK        -0.5353 
     22 CA         23.4948   -0.1390   -6.6373 C.3       4 UNK         0.0277 
     23 CB         22.5100   -1.1085   -7.3196 C.3       4 UNK        -0.1981 
     24 N          23.1992    0.0103   -5.2074 N.am      4 UNK        -0.4209 
     25 C          23.2006   -0.9181   -4.2433 C.2       3 UNK         0.4942 
     26 O          23.5576   -2.0874   -4.4023 O.2       3 UNK        -0.5208 
     27 CA         22.7434   -0.4399   -2.8550 C.3       3 UNK         0.0250 
     28 CB         21.8173   -1.4631   -2.1734 C.3       3 UNK        -0.1990 
     29 N          23.9027   -0.1847   -2.0051 N.am      3 UNK        -0.4232 
     30 C          24.7422    0.8498   -2.1509 C.2       2 UNK         0.4993 
     31 O          24.5566    1.7790   -2.9376 O.2       2 UNK        -0.5286 
     32 CA         26.0155    0.8347   -1.2872 C.3       2 UNK         0.0209 
     33 CB         25.7842    1.5999    0.0258 C.3       2 UNK        -0.1931 
     34 N          26.5162   -0.5129   -0.9848 N.am      2 UNK        -0.4546 
     35 C          26.9235   -1.4036   -1.9010 C.2       1 UNK         0.5154 
     36 O          26.9142   -1.1891   -3.1162 O.2       1 UNK        -0.5181 
     37 C          27.9848   -1.0938   -6.6445 C.2       5 UNK         0.5014 
     38 O          28.7833   -1.0409   -7.5794 O.2       5 UNK        -0.5248 
     39 N          28.0152   -0.2636   -5.5925 N.am      6 UNK        -0.4434 
     40 CA         28.9844    0.8216   -5.4177 C.3       6 UNK         0.0363 
     41 CB         28.7615    1.5040   -4.0610 C.3       6 UNK        -0.1936 
     42 C          28.9838    1.8643   -6.5493 C.2       6 UNK         0.5081 
     43 O          30.0429    2.4112   -6.8595 O.2       6 UNK        -0.5248 
     44 N          27.8123    2.1099   -7.1508 N.am      7 UNK        -0.4718 
     45 CA         27.6532    2.9898   -8.3071 C.3       7 UNK         0.0273 
     46 CB         26.2289    3.5683   -8.3278 C.3       7 UNK        -0.1935 
     47 C          27.9664    2.2525   -9.6169 C.2       7 UNK         0.5018 
     48 O          28.6700    2.8058  -10.4609 O.2       7 UNK        -0.5186 
     49 N          27.4585    1.0189   -9.7578 N.am      8 UNK        -0.4240 
     50 CA         27.6237    0.1695  -10.9416 C.3       8 UNK         0.0235 
     51 CB         26.7243   -1.0707  -10.8180 C.3       8 UNK        -0.2000 
     52 C          29.0825   -0.2406  -11.2017 C.2       8 UNK         0.4941 
     53 O          29.5373   -0.1598  -12.3433 O.2       8 UNK        -0.5273 
     54 N          29.7952   -0.6476  -10.1425 N.am      9 UNK        -0.4262 
     55 CA         31.2251   -0.9682  -10.1798 C.3       9 UNK         0.0264 
     56 CB         31.5517   -1.9374   -9.0311 C.3       9 UNK        -0.1955 
     57 C          32.1172    0.2835  -10.0922 C.2       9 UNK         0.5031 
     58 O          33.3187    0.1765  -10.3402 O.2       9 UNK        -0.5390 
     59 N          31.5258    1.4293   -9.7188 N.am      10 UNK        -0.4204 
     60 CA         32.1472    2.7417   -9.5003 C.3       10 UNK         0.0237 
     61 CB         32.7124    3.3098  -10.8194 C.3       10 UNK        -0.1985 
     62 C          33.1758    2.7654   -8.3503 C.2       10 UNK         0.4970 
     63 O          34.0266    3.6567   -8.3168 O.2       10 UNK        -0.4914 
     64 N          33.0782    1.8026   -7.4251 N.am      11 UNK        -0.4285 
     65 CA         33.9113    1.7077   -6.2202 C.3       11 UNK         0.1007 
     66 C          33.4619    2.6446   -5.0608 C.2       11 UNK         0.5703 
     67 N          32.2644    3.2200   -5.0940 N.am      11 UNK        -0.7361 
     68 O          34.2252    2.8684   -4.1241 O.2       11 UNK        -0.4986 
     69 C69        34.0928    0.2344   -5.7672 C.3       12 UNK        -0.0947 
     70 S70        32.5390   -0.5861   -5.2811 S.3       12 UNK        -0.2240 
     71 C71        32.9966   -2.3354   -5.4319 C.3       12 UNK         0.0194 
     72 H72        24.9546   -4.4207   -0.7118 H         1 UNK         0.0906 
     73 H73        24.5783   -3.1056   -1.8429 H         1 UNK         0.0906 
     74 H74        23.9705   -4.7241   -2.1413 H         1 UNK         0.0906 
     75 H75        28.0199   -4.0352   -2.9045 H         1 UNK         0.3140 
     76 H76        26.8733   -2.9907   -0.4549 H         1 UNK         0.1085 
     77 H77        29.5264   -2.2902   -1.8031 H         1 UNK         0.0836 
     78 H78        29.0607   -1.8952   -0.1721 H         1 UNK         0.0836 
     79 H79        31.6089   -5.3688   -0.9706 H         1 UNK         0.0731 
     80 H80        31.8715   -3.6550   -0.7697 H         1 UNK         0.0731 
     81 H81        32.7618   -2.8579   -2.7898 H         1 UNK         0.1312 
     82 H82        30.9587   -3.7747   -6.5635 H         1 UNK         0.1406 
     83 H83        29.4706   -5.5980   -2.9713 H         1 UNK         0.1631 
     84 H84        28.2788   -5.9548   -4.9972 H         1 UNK         0.0717 
     85 H85        29.5309   -6.3604   -6.1447 H         1 UNK         0.0717 
     86 H86        26.2298   -3.9461   -5.6987 H         1 UNK         0.0934 
     87 H87        27.6322   -3.1926   -4.9833 H         1 UNK         0.0934 
     88 H88        26.7128   -2.3732   -7.7588 H         1 UNK         0.0739 
     89 H89        24.9914   -1.9745   -5.6038 H         1 UNK         0.3093 
     90 H90        23.3183    0.8484   -7.0677 H         1 UNK         0.0818 
     91 H91        21.4770   -0.7953   -7.1686 H         1 UNK         0.0819 
     92 H92        22.6828   -1.1442   -8.3961 H         1 UNK         0.0819 
     93 H93        22.6094   -2.1270   -6.9429 H         1 UNK         0.0819 
     94 H94        22.9783    0.9559   -4.9231 H         1 UNK         0.3041 
     95 H95        22.1815    0.4903   -2.9664 H         1 UNK         0.0784 
     96 H96        21.4697   -1.1004   -1.2059 H         1 UNK         0.0793 
     97 H97        20.9334   -1.6504   -2.7845 H         1 UNK         0.0793 
     98 H98        22.3075   -2.4233   -2.0145 H         1 UNK         0.0793 
     99 H99        24.1414   -0.8987   -1.3345 H         1 UNK         0.3024 
    100 H100       26.7902    1.3564   -1.8514 H         1 UNK         0.1171 
    101 H101       25.4325    2.6139   -0.1705 H         1 UNK         0.0786 
    102 H102       25.0372    1.1120    0.6532 H         1 UNK         0.0786 
    103 H103       26.7049    1.6861    0.6032 H         1 UNK         0.0786 
    104 H104       26.5712   -0.7576   -0.0059 H         1 UNK         0.2977 
    105 H105       27.3763   -0.4391   -4.8201 H         1 UNK         0.3127 
    106 H106       29.9705    0.3643   -5.4081 H         1 UNK         0.0770 
    107 H107       27.7643    1.9399   -3.9921 H         1 UNK         0.0814 
    108 H108       29.4828    2.3074   -3.9049 H         1 UNK         0.0814 
    109 H109       28.8845    0.7988   -3.2392 H         1 UNK         0.0814 
    110 H110       27.0045    1.5657   -6.8775 H         1 UNK         0.2983 
    111 H111       28.3523    3.8249   -8.2188 H         1 UNK         0.0947 
    112 H112       26.0980    4.2472   -9.1715 H         1 UNK         0.0806 
    113 H113       26.0197    4.1356   -7.4208 H         1 UNK         0.0806 
    114 H114       25.4713    2.7892   -8.4172 H         1 UNK         0.0806 
    115 H115       26.8607    0.6558   -9.0170 H         1 UNK         0.3000 
    116 H116       27.2858    0.7470  -11.8047 H         1 UNK         0.0850 
    117 H117       26.7812   -1.6849  -11.7176 H         1 UNK         0.0810 
    118 H118       25.6793   -0.7923  -10.6794 H         1 UNK         0.0810 
    119 H119       27.0181   -1.6977   -9.9766 H         1 UNK         0.0810 
    120 H120       29.3386   -0.7245   -9.2314 H         1 UNK         0.3040 
    121 H121       31.4521   -1.4699  -11.1229 H         1 UNK         0.0766 
    122 H122       31.3816   -1.4779   -8.0569 H         1 UNK         0.0812 
    123 H123       32.5963   -2.2491   -9.0666 H         1 UNK         0.0812 
    124 H124       30.9406   -2.8385   -9.0853 H         1 UNK         0.0812 
    125 H125       30.5290    1.3984   -9.5540 H         1 UNK         0.3205 
    126 H126       31.3374    3.4004   -9.1829 H         1 UNK         0.0754 
    127 H127       33.0331    4.3449  -10.6961 H         1 UNK         0.0769 
    128 H128       31.9598    3.2982  -11.6081 H         1 UNK         0.0769 
    129 H129       33.5750    2.7418  -11.1689 H         1 UNK         0.0769 
    130 H130       32.3176    1.1430   -7.4898 H         1 UNK         0.2981 
    131 H131       34.9082    2.0586   -6.4938 H         1 UNK         0.0541 
    132 H132       31.6078    3.0074   -5.8383 H         1 UNK         0.3459 
    133 H133       31.9942    3.8349   -4.3442 H         1 UNK         0.3459 
    134 H134       34.7910    0.1748   -4.9304 H         1 UNK         0.0612 
    135 H135       34.5481   -0.3379   -6.5771 H         1 UNK         0.0612 
    136 H136       33.9762   -2.4940   -4.9781 H         1 UNK         0.0624 
    137 H137       33.0970   -2.5960   -6.4862 H         1 UNK         0.0624 
@<TRIPOS>BOND
     1    1    2 1    
     2    1   72 1    
     3    1   73 1    
     4    1   74 1    
     5    2    3 2    
     6    2    4 am   BACKBONE|DICT|INTERRES
     7    4    5 1    
     8    4   75 1    
     9    5    6 1    
    10    5   35 1    
    11    5   76 1    
    12    6    7 1    
    13    6   77 1    
    14    6   78 1    
    15    7    8 1    
    16    8    9 1    
    17    8   79 1    
    18    8   80 1    
    19    9   10 ar   
    20    9   14 ar   
    21   10   11 ar   
    22   10   81 1    
    23   11   12 ar   
    24   11   71 1    
    25   12   13 ar   
    26   12   82 1    
    27   13   14 ar   
    28   13   15 1    
    29   14   83 1    
    30   15   16 1    
    31   15   84 1    
    32   15   85 1    
    33   16   17 1    
    34   17   18 1    
    35   17   86 1    
    36   17   87 1    
    37   18   19 1    
    38   18   37 1    
    39   18   88 1    
    40   19   20 am   BACKBONE|DICT|INTERRES
    41   19   89 1    
    42   20   21 2    
    43   20   22 1    
    44   22   23 1    
    45   22   24 1    
    46   22   90 1    
    47   23   91 1    
    48   23   92 1    
    49   23   93 1    
    50   24   25 am   BACKBONE|DICT|INTERRES
    51   24   94 1    
    52   25   26 2    
    53   25   27 1    
    54   27   28 1    
    55   27   29 1    
    56   27   95 1    
    57   28   96 1    
    58   28   97 1    
    59   28   98 1    
    60   29   30 am   BACKBONE|DICT|INTERRES
    61   29   99 1    
    62   30   31 2    
    63   30   32 1    
    64   32   33 1    
    65   32   34 1    
    66   32  100 1    
    67   33  101 1    
    68   33  102 1    
    69   33  103 1    
    70   34   35 am   BACKBONE|DICT|INTERRES
    71   34  104 1    
    72   35   36 2    
    73   37   38 2    
    74   37   39 am   BACKBONE|DICT|INTERRES
    75   39   40 1    
    76   39  105 1    
    77   40   41 1    
    78   40   42 1    
    79   40  106 1    
    80   41  107 1    
    81   41  108 1    
    82   41  109 1    
    83   42   43 2    
    84   42   44 am   BACKBONE|DICT|INTERRES
    85   44   45 1    
    86   44  110 1    
    87   45   46 1    
    88   45   47 1    
    89   45  111 1    
    90   46  112 1    
    91   46  113 1    
    92   46  114 1    
    93   47   48 2    
    94   47   49 am   BACKBONE|DICT|INTERRES
    95   49   50 1    
    96   49  115 1    
    97   50   51 1    
    98   50   52 1    
    99   50  116 1    
   100   51  117 1    
   101   51  118 1    
   102   51  119 1    
   103   52   53 2    
   104   52   54 am   BACKBONE|DICT|INTERRES
   105   54   55 1    
   106   54  120 1    
   107   55   56 1    
   108   55   57 1    
   109   55  121 1    
   110   56  122 1    
   111   56  123 1    
   112   56  124 1    
   113   57   58 2    
   114   57   59 am   BACKBONE|DICT|INTERRES
   115   59   60 1    
   116   59  125 1    
   117   60   61 1    
   118   60   62 1    
   119   60  126 1    
   120   61  127 1    
   121   61  128 1    
   122   61  129 1    
   123   62   63 2    
   124   62   64 am   BACKBONE|DICT|INTERRES
   125   64   65 1    
   126   64  130 1    
   127   65   66 1    
   128   65   69 1    
   129   65  131 1    
   130   66   67 am   BACKBONE|DICT|INTERRES
   131   66   68 2    
   132   67  132 1    
   133   67  133 1    
   134   69   70 1    
   135   69  134 1    
   136   69  135 1    
   137   70   71 1    
   138   71  136 1    
   139   71  137 1    
@<TRIPOS>SUBSTRUCTURE
     1 UNK         1 GROUP             0       ****    0 ROOT    
