@<TRIPOS>MOLECULE
3R137
137   139    1
SMALL
USER_CHARGES


@<TRIPOS>ATOM
      1 CA         24.1469   -4.9879   -2.7170 C.3       0 UNK        -0.2020 
      2 C          25.2165   -3.9130   -2.8329 C.2       0 UNK         0.4855 
      3 O          25.7277   -3.6952   -3.9304 O.2       0 UNK        -0.5197 
      4 N          25.5382   -3.2519   -1.7099 N.am      1 UNK        -0.4892 
      5 CA         26.5028   -2.1530   -1.5421 C.3       1 UNK         0.0835 
      6 C6         27.9631   -2.5207   -1.8953 C.3       12 UNK        -0.0855 
      7 S7         28.6348   -3.8521   -0.8442 S.3       12 UNK        -0.2931 
      8 C8         30.4150   -3.4368   -0.8385 C.3       12 UNK         0.0378 
      9 C9         30.9768   -3.2664   -2.2458 C.ar      12 UNK        -0.0802 
     10 C10        31.6305   -2.0837   -2.6107 C.ar      12 UNK        -0.0944 
     11 C11        32.0874   -1.9035   -3.9201 C.ar      12 UNK        -0.0787 
     12 C12        31.8966   -2.9175   -4.8604 C.ar      12 UNK        -0.0862 
     13 C13        31.2438   -4.1006   -4.5101 C.ar      12 UNK        -0.0733 
     14 C14        30.8068   -4.2784   -3.1956 C.ar      12 UNK        -0.0832 
     15 C15        30.9625   -5.1674   -5.5584 C.3       12 UNK         0.0240 
     16 S16        29.8499   -4.5797   -6.8810 S.3       12 UNK        -0.2522 
     17 C17        28.4317   -3.8836   -5.9638 C.3       12 UNK        -0.0967 
     18 CA         27.9114   -2.5609   -6.5807 C.3       5 UNK         0.0660 
     19 N          26.4930   -2.3609   -6.2685 N.am      5 UNK        -0.4015 
     20 C          25.6925   -1.4969   -6.9021 C.2       4 UNK         0.4946 
     21 O          26.1093   -0.6088   -7.6457 O.2       4 UNK        -0.5353 
     22 CA         24.1820   -1.6829   -6.7270 C.3       4 UNK         0.0277 
     23 CB         23.7531   -3.1482   -6.9602 C.3       4 UNK        -0.1981 
     24 N          23.7053   -1.2029   -5.4293 N.am      4 UNK        -0.4209 
     25 C          22.4248   -0.8613   -5.2040 C.2       3 UNK         0.4942 
     26 O          21.5635   -0.8430   -6.0850 O.2       3 UNK        -0.5208 
     27 CA         21.9929   -0.5095   -3.7684 C.3       3 UNK         0.0250 
     28 CB         21.3074   -1.7183   -3.1093 C.3       3 UNK        -0.1990 
     29 N          23.0982   -0.0758   -2.9215 N.am      3 UNK        -0.4232 
     30 C          23.6797    1.1293   -2.9708 C.2       2 UNK         0.4993 
     31 O          23.2592    2.0613   -3.6549 O.2       2 UNK        -0.5286 
     32 CA         24.9465    1.3290   -2.1155 C.3       2 UNK         0.0209 
     33 CB         24.6748    2.3070   -0.9603 C.3       2 UNK        -0.1931 
     34 N          25.4952    0.0804   -1.5674 N.am      2 UNK        -0.4546 
     35 C          26.0466   -0.8941   -2.3033 C.2       1 UNK         0.5154 
     36 O          26.1675   -0.8237   -3.5294 O.2       1 UNK        -0.5181 
     37 C          28.7986   -1.3354   -6.2631 C.2       5 UNK         0.5014 
     38 O          29.7574   -1.0828   -6.9982 O.2       5 UNK        -0.5248 
     39 N          28.4343   -0.5570   -5.2331 N.am      6 UNK        -0.4434 
     40 CA         29.0796    0.7156   -4.8944 C.3       6 UNK         0.0363 
     41 CB         29.1969    0.8497   -3.3678 C.3       6 UNK        -0.1936 
     42 C          28.3538    1.9348   -5.4927 C.2       6 UNK         0.5081 
     43 O          28.8356    3.0524   -5.3085 O.2       6 UNK        -0.5248 
     44 N          27.2274    1.7271   -6.1887 N.am      7 UNK        -0.4718 
     45 CA         26.4976    2.7778   -6.9054 C.3       7 UNK         0.0273 
     46 CB         24.9857    2.5407   -6.7709 C.3       7 UNK        -0.1935 
     47 C          26.9001    2.8375   -8.3866 C.2       7 UNK         0.5018 
     48 O          26.9366    3.9305   -8.9522 O.2       7 UNK        -0.5186 
     49 N          27.1833    1.6682   -8.9796 N.am      8 UNK        -0.4240 
     50 CA         27.5842    1.4702  -10.3752 C.3       8 UNK         0.0235 
     51 CB         27.8104   -0.0276  -10.6537 C.3       8 UNK        -0.2000 
     52 C          28.7663    2.3335  -10.8747 C.2       8 UNK         0.4941 
     53 O          28.6200    2.9446  -11.9323 O.2       8 UNK        -0.5273 
     54 N          29.9112    2.4355  -10.1824 N.am      9 UNK        -0.4262 
     55 CA         30.3814    1.6565   -9.0387 C.3       9 UNK         0.0264 
     56 CB         30.8839    2.6244   -7.9558 C.3       9 UNK        -0.1955 
     57 C          31.5385    0.7788   -9.5216 C.2       9 UNK         0.5031 
     58 O          32.3983    1.2705  -10.2581 O.2       9 UNK        -0.5390 
     59 N          31.5809   -0.4814   -9.0722 N.am      10 UNK        -0.4204 
     60 CA         32.6387   -1.4328   -9.4379 C.3       10 UNK         0.0237 
     61 CB         32.1912   -2.8611   -9.1006 C.3       10 UNK        -0.1985 
     62 C          34.0022   -1.1069   -8.7987 C.2       10 UNK         0.4970 
     63 O          35.0288   -1.5450   -9.3189 O.2       10 UNK        -0.4914 
     64 N          33.9905   -0.3213   -7.7139 N.am      11 UNK        -0.4285 
     65 CA         35.1815    0.2796   -7.0942 C.3       11 UNK         0.1007 
     66 C          35.7540    1.4985   -7.8798 C.2       11 UNK         0.5703 
     67 N          35.1031    1.9997   -8.9254 N.am      11 UNK        -0.7361 
     68 O          36.8237    1.9967   -7.5372 O.2       11 UNK        -0.4986 
     69 C69        34.9354    0.6393   -5.6032 C.3       12 UNK        -0.0947 
     70 S70        34.5364   -0.8230   -4.5887 S.3       12 UNK        -0.2240 
     71 C71        32.7480   -0.6043   -4.3498 C.3       12 UNK         0.0194 
     72 H72        24.5746   -5.9641   -2.9435 H         1 UNK         0.0906 
     73 H73        23.7122   -5.0296   -1.7186 H         1 UNK         0.0906 
     74 H74        23.3447   -4.7953   -3.4288 H         1 UNK         0.0906 
     75 H75        25.0663   -3.5178   -0.8565 H         1 UNK         0.3140 
     76 H76        26.4915   -1.9098   -0.4781 H         1 UNK         0.1085 
     77 H77        28.0514   -2.8157   -2.9402 H         1 UNK         0.0836 
     78 H78        28.6017   -1.6456   -1.7715 H         1 UNK         0.0836 
     79 H79        30.5612   -2.5294   -0.2502 H         1 UNK         0.0731 
     80 H80        30.9644   -4.2287   -0.3279 H         1 UNK         0.0731 
     81 H81        31.7634   -1.2940   -1.8839 H         1 UNK         0.1312 
     82 H82        32.2348   -2.7694   -5.8741 H         1 UNK         0.1406 
     83 H83        30.2895   -5.1869   -2.9177 H         1 UNK         0.1631 
     84 H84        30.5216   -6.0546   -5.1012 H         1 UNK         0.0717 
     85 H85        31.9044   -5.4877   -6.0055 H         1 UNK         0.0717 
     86 H86        27.6486   -4.6432   -5.9933 H         1 UNK         0.0934 
     87 H87        28.6609   -3.7523   -4.9083 H         1 UNK         0.0934 
     88 H88        27.9494   -2.6763   -7.6665 H         1 UNK         0.0739 
     89 H89        26.1006   -2.9698   -5.5501 H         1 UNK         0.3093 
     90 H90        23.7190   -1.0756   -7.5083 H         1 UNK         0.0818 
     91 H91        22.6709   -3.2336   -7.0581 H         1 UNK         0.0819 
     92 H92        24.1877   -3.5443   -7.8791 H         1 UNK         0.0819 
     93 H93        24.0615   -3.8002   -6.1425 H         1 UNK         0.0819 
     94 H94        24.3915   -1.1520   -4.6830 H         1 UNK         0.3041 
     95 H95        21.2657    0.3030   -3.8331 H         1 UNK         0.0784 
     96 H96        20.4541   -2.0534   -3.7009 H         1 UNK         0.0793 
     97 H97        21.9871   -2.5654   -3.0105 H         1 UNK         0.0793 
     98 H98        20.9321   -1.4697   -2.1163 H         1 UNK         0.0793 
     99 H99        23.4996   -0.7676   -2.3068 H         1 UNK         0.3024 
    100 H100       25.6999    1.7713   -2.7720 H         1 UNK         0.1171 
    101 H101       24.2995    3.2605   -1.3350 H         1 UNK         0.0786 
    102 H102       25.5840    2.5195   -0.3975 H         1 UNK         0.0786 
    103 H103       23.9311    1.9150   -0.2654 H         1 UNK         0.0786 
    104 H104       25.4209   -0.0394   -0.5667 H         1 UNK         0.2977 
    105 H105       27.6042   -0.8004   -4.6940 H         1 UNK         0.3127 
    106 H106       30.0930    0.7283   -5.2976 H         1 UNK         0.0770 
    107 H107       28.2219    0.9250   -2.8891 H         1 UNK         0.0814 
    108 H108       29.7566    1.7463   -3.0982 H         1 UNK         0.0814 
    109 H109       29.7283    0.0035   -2.9377 H         1 UNK         0.0814 
    110 H110       26.9087    0.7765   -6.3349 H         1 UNK         0.2983 
    111 H111       26.7196    3.7527   -6.4652 H         1 UNK         0.0947 
    112 H112       24.4214    3.3178   -7.2881 H         1 UNK         0.0806 
    113 H113       24.6816    2.5644   -5.7267 H         1 UNK         0.0806 
    114 H114       24.6775    1.5824   -7.1887 H         1 UNK         0.0806 
    115 H115       27.0119    0.8207   -8.4441 H         1 UNK         0.3000 
    116 H116       26.7202    1.7731  -10.9703 H         1 UNK         0.0850 
    117 H117       28.1260   -0.1910  -11.6851 H         1 UNK         0.0810 
    118 H118       26.8915   -0.5955  -10.5054 H         1 UNK         0.0810 
    119 H119       28.5708   -0.4637  -10.0071 H         1 UNK         0.0810 
    120 H120       30.6417    2.9922  -10.6033 H         1 UNK         0.3040 
    121 H121       29.6034    1.0274   -8.6138 H         1 UNK         0.0766 
    122 H122       31.1977    2.0855   -7.0615 H         1 UNK         0.0812 
    123 H123       30.1019    3.3235   -7.6603 H         1 UNK         0.0812 
    124 H124       31.7367    3.2128   -8.2977 H         1 UNK         0.0812 
    125 H125       30.8755   -0.7994   -8.4051 H         1 UNK         0.3205 
    126 H126       32.7765   -1.3785  -10.5201 H         1 UNK         0.0754 
    127 H127       32.9466   -3.5905   -9.3958 H         1 UNK         0.0769 
    128 H128       31.2679   -3.1215   -9.6186 H         1 UNK         0.0769 
    129 H129       32.0192   -2.9831   -8.0344 H         1 UNK         0.0769 
    130 H130       33.1002   -0.0110   -7.3598 H         1 UNK         0.2981 
    131 H131       35.9734   -0.4717   -7.1153 H         1 UNK         0.0541 
    132 H132       34.2307    1.6030   -9.2510 H         1 UNK         0.3459 
    133 H133       35.5033    2.7845   -9.4142 H         1 UNK         0.3459 
    134 H134       34.1449    1.3862   -5.5099 H         1 UNK         0.0612 
    135 H135       35.8286    1.0903   -5.1671 H         1 UNK         0.0612 
    136 H136       32.2919   -0.2714   -5.2827 H         1 UNK         0.0624 
    137 H137       32.5737    0.1857   -3.6177 H         1 UNK         0.0624 
@<TRIPOS>BOND
     1    1    2 1    
     2    1   72 1    
     3    1   73 1    
     4    1   74 1    
     5    2    3 2    
     6    2    4 am   BACKBONE|DICT|INTERRES
     7    4    5 1    
     8    4   75 1    
     9    5    6 1    
    10    5   35 1    
    11    5   76 1    
    12    6    7 1    
    13    6   77 1    
    14    6   78 1    
    15    7    8 1    
    16    8    9 1    
    17    8   79 1    
    18    8   80 1    
    19    9   10 ar   
    20    9   14 ar   
    21   10   11 ar   
    22   10   81 1    
    23   11   12 ar   
    24   11   71 1    
    25   12   13 ar   
    26   12   82 1    
    27   13   14 ar   
    28   13   15 1    
    29   14   83 1    
    30   15   16 1    
    31   15   84 1    
    32   15   85 1    
    33   16   17 1    
    34   17   18 1    
    35   17   86 1    
    36   17   87 1    
    37   18   19 1    
    38   18   37 1    
    39   18   88 1    
    40   19   20 am   BACKBONE|DICT|INTERRES
    41   19   89 1    
    42   20   21 2    
    43   20   22 1    
    44   22   23 1    
    45   22   24 1    
    46   22   90 1    
    47   23   91 1    
    48   23   92 1    
    49   23   93 1    
    50   24   25 am   BACKBONE|DICT|INTERRES
    51   24   94 1    
    52   25   26 2    
    53   25   27 1    
    54   27   28 1    
    55   27   29 1    
    56   27   95 1    
    57   28   96 1    
    58   28   97 1    
    59   28   98 1    
    60   29   30 am   BACKBONE|DICT|INTERRES
    61   29   99 1    
    62   30   31 2    
    63   30   32 1    
    64   32   33 1    
    65   32   34 1    
    66   32  100 1    
    67   33  101 1    
    68   33  102 1    
    69   33  103 1    
    70   34   35 am   BACKBONE|DICT|INTERRES
    71   34  104 1    
    72   35   36 2    
    73   37   38 2    
    74   37   39 am   BACKBONE|DICT|INTERRES
    75   39   40 1    
    76   39  105 1    
    77   40   41 1    
    78   40   42 1    
    79   40  106 1    
    80   41  107 1    
    81   41  108 1    
    82   41  109 1    
    83   42   43 2    
    84   42   44 am   BACKBONE|DICT|INTERRES
    85   44   45 1    
    86   44  110 1    
    87   45   46 1    
    88   45   47 1    
    89   45  111 1    
    90   46  112 1    
    91   46  113 1    
    92   46  114 1    
    93   47   48 2    
    94   47   49 am   BACKBONE|DICT|INTERRES
    95   49   50 1    
    96   49  115 1    
    97   50   51 1    
    98   50   52 1    
    99   50  116 1    
   100   51  117 1    
   101   51  118 1    
   102   51  119 1    
   103   52   53 2    
   104   52   54 am   BACKBONE|DICT|INTERRES
   105   54   55 1    
   106   54  120 1    
   107   55   56 1    
   108   55   57 1    
   109   55  121 1    
   110   56  122 1    
   111   56  123 1    
   112   56  124 1    
   113   57   58 2    
   114   57   59 am   BACKBONE|DICT|INTERRES
   115   59   60 1    
   116   59  125 1    
   117   60   61 1    
   118   60   62 1    
   119   60  126 1    
   120   61  127 1    
   121   61  128 1    
   122   61  129 1    
   123   62   63 2    
   124   62   64 am   BACKBONE|DICT|INTERRES
   125   64   65 1    
   126   64  130 1    
   127   65   66 1    
   128   65   69 1    
   129   65  131 1    
   130   66   67 am   BACKBONE|DICT|INTERRES
   131   66   68 2    
   132   67  132 1    
   133   67  133 1    
   134   69   70 1    
   135   69  134 1    
   136   69  135 1    
   137   70   71 1    
   138   71  136 1    
   139   71  137 1    
@<TRIPOS>SUBSTRUCTURE
     1 UNK         1 GROUP             0       ****    0 ROOT    
