@<TRIPOS>MOLECULE
3R137
137   139    1
SMALL
USER_CHARGES


@<TRIPOS>ATOM
      1 CA         24.6003   -5.1875   -3.0226 C.3       0 UNK        -0.2020 
      2 C          25.1914   -4.1394   -2.0913 C.2       0 UNK         0.4855 
      3 O          24.4431   -3.4351   -1.4134 O.2       0 UNK        -0.5197 
      4 N          26.5263   -4.0423   -2.0419 N.am      1 UNK        -0.4892 
      5 CA         27.2717   -3.1102   -1.1882 C.3       1 UNK         0.0835 
      6 C6         28.7960   -3.3894   -1.1879 C.3       12 UNK        -0.0855 
      7 S7         29.2435   -5.1553   -1.0021 S.3       12 UNK        -0.2931 
      8 C8         30.9291   -5.2192   -1.7113 C.3       12 UNK         0.0378 
      9 C9         31.0174   -4.5159   -3.0594 C.ar      12 UNK        -0.0802 
     10 C10        31.7334   -3.3195   -3.1802 C.ar      12 UNK        -0.0944 
     11 C11        31.7357   -2.6016   -4.3797 C.ar      12 UNK        -0.0787 
     12 C12        30.9967   -3.1014   -5.4609 C.ar      12 UNK        -0.0862 
     13 C13        30.2970   -4.3079   -5.3653 C.ar      12 UNK        -0.0733 
     14 C14        30.3251   -5.0203   -4.1635 C.ar      12 UNK        -0.0832 
     15 C15        29.5305   -4.8373   -6.5734 C.3       12 UNK         0.0240 
     16 S16        27.7921   -5.2745   -6.2231 S.3       12 UNK        -0.2522 
     17 C17        27.0864   -3.7298   -5.5610 C.3       12 UNK        -0.0967 
     18 CA         26.7895   -2.6607   -6.6489 C.3       5 UNK         0.0660 
     19 N          25.4928   -2.0006   -6.4478 N.am      5 UNK        -0.4015 
     20 C          24.9244   -1.1468   -7.3134 C.2       4 UNK         0.4946 
     21 O          25.4258   -0.8198   -8.3872 O.2       4 UNK        -0.5353 
     22 CA         23.5742   -0.5260   -6.9158 C.3       4 UNK         0.0277 
     23 CB         22.4172   -1.4387   -7.3528 C.3       4 UNK        -0.1981 
     24 N          23.4356   -0.2090   -5.4913 N.am      4 UNK        -0.4209 
     25 C          24.2579    0.5758   -4.7810 C.2       3 UNK         0.4942 
     26 O          25.2919    1.0713   -5.2355 O.2       3 UNK        -0.5208 
     27 CA         23.8870    0.8393   -3.3143 C.3       3 UNK         0.0250 
     28 CB         22.7174   -0.0148   -2.7759 C.3       3 UNK        -0.1990 
     29 N          25.0847    0.5954   -2.5281 N.am      3 UNK        -0.4232 
     30 C          25.4172    1.1378   -1.3580 C.2       2 UNK         0.4993 
     31 O          24.7005    1.9261   -0.7380 O.2       2 UNK        -0.5286 
     32 CA         26.7886    0.7098   -0.7932 C.3       2 UNK         0.0209 
     33 CB         27.1102    1.3855    0.5534 C.3       2 UNK        -0.1931 
     34 N          26.9279   -0.7444   -0.6360 N.am      2 UNK        -0.4546 
     35 C          27.0357   -1.6490   -1.6203 C.2       1 UNK         0.5154 
     36 O          27.0072   -1.3685   -2.8256 O.2       1 UNK        -0.5181 
     37 C          27.9260   -1.6276   -6.7453 C.2       5 UNK         0.5014 
     38 O          28.6057   -1.5548   -7.7712 O.2       5 UNK        -0.5248 
     39 N          28.0766   -0.8274   -5.6798 N.am      6 UNK        -0.4434 
     40 CA         29.0598    0.2485   -5.5731 C.3       6 UNK         0.0363 
     41 CB         28.9875    0.8529   -4.1639 C.3       6 UNK        -0.1936 
     42 C          28.8915    1.3333   -6.6476 C.2       6 UNK         0.5081 
     43 O          29.8954    1.8305   -7.1593 O.2       6 UNK        -0.5248 
     44 N          27.6371    1.6609   -6.9882 N.am      7 UNK        -0.4718 
     45 CA         27.2904    2.6014   -8.0530 C.3       7 UNK         0.0273 
     46 CB         25.7892    2.9254   -7.9940 C.3       7 UNK        -0.1935 
     47 C          27.6906    2.0958   -9.4489 C.2       7 UNK         0.5018 
     48 O          28.3472    2.8333  -10.1844 O.2       7 UNK        -0.5186 
     49 N          27.3046    0.8562   -9.7886 N.am      8 UNK        -0.4240 
     50 CA         27.5744    0.2385  -11.0912 C.3       8 UNK         0.0235 
     51 CB         26.7501   -1.0495  -11.2446 C.3       8 UNK        -0.2000 
     52 C          29.0635   -0.0496  -11.3286 C.2       8 UNK         0.4941 
     53 O          29.5534    0.1867  -12.4337 O.2       8 UNK        -0.5273 
     54 N          29.7577   -0.5439  -10.2950 N.am      9 UNK        -0.4262 
     55 CA         31.1906   -0.8466  -10.3441 C.3       9 UNK         0.0264 
     56 CB         31.5076   -1.8947   -9.2713 C.3       9 UNK        -0.1955 
     57 C          32.0919    0.3931  -10.1811 C.2       9 UNK         0.5031 
     58 O          33.2931    0.2825  -10.4314 O.2       9 UNK        -0.5390 
     59 N          31.5107    1.5332   -9.7755 N.am      10 UNK        -0.4204 
     60 CA         32.1558    2.8243   -9.5100 C.3       10 UNK         0.0237 
     61 CB         32.7431    3.4305  -10.8030 C.3       10 UNK        -0.1985 
     62 C          33.1727    2.7387   -8.3555 C.2       10 UNK         0.4970 
     63 O          34.3338    3.1212   -8.5158 O.2       10 UNK        -0.4914 
     64 N          32.7005    2.2378   -7.2107 N.am      11 UNK        -0.4285 
     65 CA         33.4615    2.0670   -5.9630 C.3       11 UNK         0.1007 
     66 C          32.6905    2.5455   -4.7009 C.2       11 UNK         0.5703 
     67 N          31.6150    3.3121   -4.8387 N.am      11 UNK        -0.7361 
     68 O          33.0886    2.2532   -3.5761 O.2       11 UNK        -0.4986 
     69 C69        34.0961    0.6521   -5.8302 C.3       12 UNK        -0.0947 
     70 S70        32.9550   -0.7384   -6.1340 S.3       12 UNK        -0.2240 
     71 C71        32.5204   -1.2858   -4.4474 C.3       12 UNK         0.0194 
     72 H72        24.0055   -4.7085   -3.7998 H         1 UNK         0.0906 
     73 H73        25.3714   -5.7899   -3.5027 H         1 UNK         0.0906 
     74 H74        23.9496   -5.8593   -2.4634 H         1 UNK         0.0906 
     75 H75        27.0997   -4.6573   -2.6011 H         1 UNK         0.3140 
     76 H76        26.8981   -3.2402   -0.1701 H         1 UNK         0.1085 
     77 H77        29.2197   -3.0079   -2.1163 H         1 UNK         0.0836 
     78 H78        29.2841   -2.8301   -0.3874 H         1 UNK         0.0836 
     79 H79        31.2295   -6.2617   -1.8255 H         1 UNK         0.0731 
     80 H80        31.6261   -4.7758   -0.9984 H         1 UNK         0.0731 
     81 H81        32.2688   -2.9282   -2.3257 H         1 UNK         0.1312 
     82 H82        30.9572   -2.5541   -6.3883 H         1 UNK         0.1406 
     83 H83        29.7727   -5.9460   -4.0734 H         1 UNK         0.1631 
     84 H84        30.0417   -5.7272   -6.9425 H         1 UNK         0.0717 
     85 H85        29.5502   -4.1186   -7.3937 H         1 UNK         0.0717 
     86 H86        26.1553   -4.0256   -5.0804 H         1 UNK         0.0934 
     87 H87        27.7131   -3.3559   -4.7482 H         1 UNK         0.0934 
     88 H88        26.7239   -3.1566   -7.6201 H         1 UNK         0.0739 
     89 H89        25.0130   -2.1869   -5.5807 H         1 UNK         0.3093 
     90 H90        23.4825    0.4157   -7.4604 H         1 UNK         0.0818 
     91 H91        21.4507   -0.9604   -7.1929 H         1 UNK         0.0819 
     92 H92        22.4862   -1.6736   -8.4162 H         1 UNK         0.0819 
     93 H93        22.4189   -2.3847   -6.8098 H         1 UNK         0.0819 
     94 H94        22.6176   -0.5762   -5.0267 H         1 UNK         0.3041 
     95 H95        23.6206    1.8954   -3.2387 H         1 UNK         0.0784 
     96 H96        21.7941    0.1779   -3.3236 H         1 UNK         0.0793 
     97 H97        22.9330   -1.0830   -2.8333 H         1 UNK         0.0793 
     98 H98        22.5139    0.2185   -1.7305 H         1 UNK         0.0793 
     99 H99        25.7545   -0.0507   -2.9417 H         1 UNK         0.3024 
    100 H100       27.5389    1.0435   -1.5127 H         1 UNK         0.1171 
    101 H101       28.1130    1.1306    0.8970 H         1 UNK         0.0786 
    102 H102       27.0687    2.4722    0.4662 H         1 UNK         0.0786 
    103 H103       26.4032    1.0932    1.3308 H         1 UNK         0.0786 
    104 H104       26.9417   -1.0765    0.3176 H         1 UNK         0.2977 
    105 H105       27.4842   -0.9704   -4.8695 H         1 UNK         0.3127 
    106 H106       30.0471   -0.1929   -5.7103 H         1 UNK         0.0770 
    107 H107       27.9947    1.2510   -3.9511 H         1 UNK         0.0814 
    108 H108       29.6972    1.6687   -4.0448 H         1 UNK         0.0814 
    109 H109       29.2266    0.1090   -3.4039 H         1 UNK         0.0814 
    110 H110       26.8664    1.2398   -6.4769 H         1 UNK         0.2983 
    111 H111       27.8416    3.5262   -7.8683 H         1 UNK         0.0947 
    112 H112       25.5153    3.6501   -8.7617 H         1 UNK         0.0806 
    113 H113       25.5144    3.3535   -7.0298 H         1 UNK         0.0806 
    114 H114       25.1777    2.0368   -8.1499 H         1 UNK         0.0806 
    115 H115       26.7533    0.3056   -9.1327 H         1 UNK         0.3000 
    116 H116       27.2491    0.9396  -11.8629 H         1 UNK         0.0850 
    117 H117       26.9284   -1.5168  -12.2140 H         1 UNK         0.0810 
    118 H118       25.6815   -0.8461  -11.1745 H         1 UNK         0.0810 
    119 H119       27.0017   -1.7818  -10.4759 H         1 UNK         0.0810 
    120 H120       29.2738   -0.7523   -9.4233 H         1 UNK         0.3040 
    121 H121       31.4227   -1.2851  -11.3170 H         1 UNK         0.0766 
    122 H122       31.2508   -1.5134   -8.2863 H         1 UNK         0.0812 
    123 H123       32.5680   -2.1506   -9.2618 H         1 UNK         0.0812 
    124 H124       30.9471   -2.8156   -9.4322 H         1 UNK         0.0812 
    125 H125       30.5217    1.4989   -9.5647 H         1 UNK         0.3205 
    126 H126       31.3625    3.4918   -9.1696 H         1 UNK         0.0754 
    127 H127       33.1211    4.4376  -10.6233 H         1 UNK         0.0769 
    128 H128       31.9861    3.5029  -11.5840 H         1 UNK         0.0769 
    129 H129       33.5716    2.8383  -11.1927 H         1 UNK         0.0769 
    130 H130       31.7197    1.9649   -7.1670 H         1 UNK         0.2981 
    131 H131       34.2987    2.7662   -5.9953 H         1 UNK         0.0541 
    132 H132       31.2740    3.5640   -5.7527 H         1 UNK         0.3459 
    133 H133       31.1418    3.6440   -4.0141 H         1 UNK         0.3459 
    134 H134       34.5893    0.5238   -4.8654 H         1 UNK         0.0612 
    135 H135       34.8932    0.5619   -6.5694 H         1 UNK         0.0612 
    136 H136       33.4436   -1.3909   -3.8756 H         1 UNK         0.0624 
    137 H137       31.9374   -0.5022   -3.9620 H         1 UNK         0.0624 
@<TRIPOS>BOND
     1    1    2 1    
     2    1   72 1    
     3    1   73 1    
     4    1   74 1    
     5    2    3 2    
     6    2    4 am   BACKBONE|DICT|INTERRES
     7    4    5 1    
     8    4   75 1    
     9    5    6 1    
    10    5   35 1    
    11    5   76 1    
    12    6    7 1    
    13    6   77 1    
    14    6   78 1    
    15    7    8 1    
    16    8    9 1    
    17    8   79 1    
    18    8   80 1    
    19    9   10 ar   
    20    9   14 ar   
    21   10   11 ar   
    22   10   81 1    
    23   11   12 ar   
    24   11   71 1    
    25   12   13 ar   
    26   12   82 1    
    27   13   14 ar   
    28   13   15 1    
    29   14   83 1    
    30   15   16 1    
    31   15   84 1    
    32   15   85 1    
    33   16   17 1    
    34   17   18 1    
    35   17   86 1    
    36   17   87 1    
    37   18   19 1    
    38   18   37 1    
    39   18   88 1    
    40   19   20 am   BACKBONE|DICT|INTERRES
    41   19   89 1    
    42   20   21 2    
    43   20   22 1    
    44   22   23 1    
    45   22   24 1    
    46   22   90 1    
    47   23   91 1    
    48   23   92 1    
    49   23   93 1    
    50   24   25 am   BACKBONE|DICT|INTERRES
    51   24   94 1    
    52   25   26 2    
    53   25   27 1    
    54   27   28 1    
    55   27   29 1    
    56   27   95 1    
    57   28   96 1    
    58   28   97 1    
    59   28   98 1    
    60   29   30 am   BACKBONE|DICT|INTERRES
    61   29   99 1    
    62   30   31 2    
    63   30   32 1    
    64   32   33 1    
    65   32   34 1    
    66   32  100 1    
    67   33  101 1    
    68   33  102 1    
    69   33  103 1    
    70   34   35 am   BACKBONE|DICT|INTERRES
    71   34  104 1    
    72   35   36 2    
    73   37   38 2    
    74   37   39 am   BACKBONE|DICT|INTERRES
    75   39   40 1    
    76   39  105 1    
    77   40   41 1    
    78   40   42 1    
    79   40  106 1    
    80   41  107 1    
    81   41  108 1    
    82   41  109 1    
    83   42   43 2    
    84   42   44 am   BACKBONE|DICT|INTERRES
    85   44   45 1    
    86   44  110 1    
    87   45   46 1    
    88   45   47 1    
    89   45  111 1    
    90   46  112 1    
    91   46  113 1    
    92   46  114 1    
    93   47   48 2    
    94   47   49 am   BACKBONE|DICT|INTERRES
    95   49   50 1    
    96   49  115 1    
    97   50   51 1    
    98   50   52 1    
    99   50  116 1    
   100   51  117 1    
   101   51  118 1    
   102   51  119 1    
   103   52   53 2    
   104   52   54 am   BACKBONE|DICT|INTERRES
   105   54   55 1    
   106   54  120 1    
   107   55   56 1    
   108   55   57 1    
   109   55  121 1    
   110   56  122 1    
   111   56  123 1    
   112   56  124 1    
   113   57   58 2    
   114   57   59 am   BACKBONE|DICT|INTERRES
   115   59   60 1    
   116   59  125 1    
   117   60   61 1    
   118   60   62 1    
   119   60  126 1    
   120   61  127 1    
   121   61  128 1    
   122   61  129 1    
   123   62   63 2    
   124   62   64 am   BACKBONE|DICT|INTERRES
   125   64   65 1    
   126   64  130 1    
   127   65   66 1    
   128   65   69 1    
   129   65  131 1    
   130   66   67 am   BACKBONE|DICT|INTERRES
   131   66   68 2    
   132   67  132 1    
   133   67  133 1    
   134   69   70 1    
   135   69  134 1    
   136   69  135 1    
   137   70   71 1    
   138   71  136 1    
   139   71  137 1    
@<TRIPOS>SUBSTRUCTURE
     1 UNK         1 GROUP             0       ****    0 ROOT    
