@<TRIPOS>MOLECULE
3R137
137   139    1
SMALL
USER_CHARGES


@<TRIPOS>ATOM
      1 CA         26.1381   -5.9672   -3.8681 C.3       0 UNK        -0.2020 
      2 C          24.9940   -5.6331   -2.9140 C.2       0 UNK         0.4855 
      3 O          23.8703   -6.0625   -3.1674 O.2       0 UNK        -0.5197 
      4 N          25.1952   -4.8989   -1.8084 N.am      1 UNK        -0.4892 
      5 CA         26.4147   -4.2499   -1.3030 C.3       1 UNK         0.0835 
      6 C6         27.6020   -5.2324   -1.0963 C.3       12 UNK        -0.0855 
      7 S7         28.8445   -4.6414    0.1094 S.3       12 UNK        -0.2931 
      8 C8         30.4223   -5.0262   -0.7242 C.3       12 UNK         0.0378 
      9 C9         30.6886   -4.1315   -1.9291 C.ar      12 UNK        -0.0802 
     10 C10        31.2967   -2.8814   -1.7667 C.ar      12 UNK        -0.0944 
     11 C11        31.5598   -2.0583   -2.8692 C.ar      12 UNK        -0.0787 
     12 C12        31.1931   -2.5063   -4.1452 C.ar      12 UNK        -0.0862 
     13 C13        30.5815   -3.7493   -4.3205 C.ar      12 UNK        -0.0733 
     14 C14        30.3488   -4.5648   -3.2131 C.ar      12 UNK        -0.0832 
     15 C15        30.1548   -4.2051   -5.7062 C.3       12 UNK         0.0240 
     16 S16        28.4374   -3.7164   -6.0554 S.3       12 UNK        -0.2522 
     17 C17        28.5982   -1.9029   -6.1361 C.3       12 UNK        -0.0967 
     18 CA         27.3595   -1.2458   -6.7759 C.3       5 UNK         0.0660 
     19 N          26.1626   -1.3981   -5.9407 N.am      5 UNK        -0.4015 
     20 C          24.9167   -1.0788   -6.3210 C.2       4 UNK         0.4946 
     21 O          24.6369   -0.5852   -7.4143 O.2       4 UNK        -0.5353 
     22 CA         23.8031   -1.3222   -5.2943 C.3       4 UNK         0.0277 
     23 CB         23.4690   -2.8195   -5.1904 C.3       4 UNK        -0.1981 
     24 N          24.1912   -0.8022   -3.9829 N.am      4 UNK        -0.4209 
     25 C          24.0489    0.4800   -3.6158 C.2       3 UNK         0.4942 
     26 O          23.4824    1.3296   -4.3039 O.2       3 UNK        -0.5208 
     27 CA         24.6447    0.9015   -2.2592 C.3       3 UNK         0.0250 
     28 CB         23.5794    0.8141   -1.1545 C.3       3 UNK        -0.1990 
     29 N          25.8230    0.1287   -1.8565 N.am      3 UNK        -0.4232 
     30 C          26.9858    0.0998   -2.5233 C.2       2 UNK         0.4993 
     31 O          27.1985    0.7275   -3.5572 O.2       2 UNK        -0.5286 
     32 CA         28.0784   -0.8302   -1.9753 C.3       2 UNK         0.0209 
     33 CB         28.8752   -0.1133   -0.8738 C.3       2 UNK        -0.1931 
     34 N          27.5784   -2.1064   -1.4546 N.am      2 UNK        -0.4546 
     35 C          26.7797   -2.9717   -2.0939 C.2       1 UNK         0.5154 
     36 O          26.3104   -2.7615   -3.2171 O.2       1 UNK        -0.5181 
     37 C          27.6618    0.2158   -7.1625 C.2       5 UNK         0.5014 
     38 O          28.2424    0.4353   -8.2264 O.2       5 UNK        -0.5248 
     39 N          27.2427    1.1880   -6.3391 N.am      6 UNK        -0.4434 
     40 CA         27.3355    2.6322   -6.5840 C.3       6 UNK         0.0363 
     41 CB         26.7591    3.3909   -5.3773 C.3       6 UNK        -0.1936 
     42 C          26.6620    3.1184   -7.8816 C.2       6 UNK         0.5081 
     43 O          27.0405    4.1773   -8.3817 O.2       6 UNK        -0.5248 
     44 N          25.7098    2.3443   -8.4254 N.am      7 UNK        -0.4718 
     45 CA         25.0996    2.5913   -9.7359 C.3       7 UNK         0.0273 
     46 CB         23.8830    1.6698   -9.9147 C.3       7 UNK        -0.1935 
     47 C          26.0904    2.4113  -10.9024 C.2       7 UNK         0.5018 
     48 O          25.9702    3.1139  -11.9067 O.2       7 UNK        -0.5186 
     49 N          27.0510    1.4904  -10.7425 N.am      8 UNK        -0.4240 
     50 CA         28.1533    1.2555  -11.6784 C.3       8 UNK         0.0235 
     51 CB         28.3837   -0.2606  -11.7996 C.3       8 UNK        -0.2000 
     52 C          29.4513    1.9489  -11.2282 C.2       8 UNK         0.4941 
     53 O          30.3126    2.2042  -12.0700 O.2       8 UNK        -0.5273 
     54 N          29.5757    2.2061   -9.9162 N.am      9 UNK        -0.4262 
     55 CA         30.7601    2.6806   -9.1908 C.3       9 UNK         0.0264 
     56 CB         31.1806    4.0921   -9.6513 C.3       9 UNK        -0.1955 
     57 C          31.9060    1.6518   -9.2375 C.2       9 UNK         0.5031 
     58 O          33.0713    2.0284   -9.3750 O.2       9 UNK        -0.5390 
     59 N          31.5471    0.3629   -9.1276 N.am      10 UNK        -0.4204 
     60 CA         32.4346   -0.7894   -9.3260 C.3       10 UNK         0.0237 
     61 CB         31.6114   -2.0848   -9.2421 C.3       10 UNK        -0.1985 
     62 C          33.6461   -0.8543   -8.3776 C.2       10 UNK         0.4970 
     63 O          34.7012   -1.3344   -8.7938 O.2       10 UNK        -0.4914 
     64 N          33.4811   -0.3663   -7.1421 N.am      11 UNK        -0.4285 
     65 CA         34.5559   -0.2213   -6.1468 C.3       11 UNK         0.1007 
     66 C          35.2764    1.1599   -6.1828 C.2       11 UNK         0.5703 
     67 N          34.9653    2.0603   -7.1090 N.am      11 UNK        -0.7361 
     68 O          36.1583    1.4149   -5.3658 O.2       11 UNK        -0.4986 
     69 C69        34.0878   -0.6318   -4.7238 C.3       12 UNK        -0.0947 
     70 S70        32.6366    0.2884   -4.1078 S.3       12 UNK        -0.2240 
     71 C71        32.2209   -0.6969   -2.6234 C.3       12 UNK         0.0194 
     72 H72        26.8474   -5.1508   -3.9755 H         1 UNK         0.0906 
     73 H73        26.6712   -6.8526   -3.5242 H         1 UNK         0.0906 
     74 H74        25.7468   -6.1790   -4.8628 H         1 UNK         0.0906 
     75 H75        24.3791   -4.7111   -1.2426 H         1 UNK         0.3140 
     76 H76        26.1194   -3.9000   -0.3120 H         1 UNK         0.1085 
     77 H77        27.2264   -6.1829   -0.7139 H         1 UNK         0.0836 
     78 H78        28.0826   -5.4701   -2.0406 H         1 UNK         0.0836 
     79 H79        30.4292   -6.0770   -1.0182 H         1 UNK         0.0731 
     80 H80        31.2333   -4.9122   -0.0032 H         1 UNK         0.0731 
     81 H81        31.5661   -2.5474   -0.7739 H         1 UNK         0.1312 
     82 H82        31.3669   -1.8922   -5.0156 H         1 UNK         0.1406 
     83 H83        29.8931   -5.5345   -3.3568 H         1 UNK         0.1631 
     84 H84        30.2346   -5.2905   -5.7828 H         1 UNK         0.0717 
     85 H85        30.8208   -3.7980   -6.4676 H         1 UNK         0.0717 
     86 H86        28.7584   -1.5105   -5.1313 H         1 UNK         0.0934 
     87 H87        29.4970   -1.6694   -6.7084 H         1 UNK         0.0934 
     88 H88        27.1542   -1.7632   -7.7158 H         1 UNK         0.0739 
     89 H89        26.3004   -1.8270   -5.0306 H         1 UNK         0.3093 
     90 H90        22.9057   -0.8024   -5.6376 H         1 UNK         0.0818 
     91 H91        22.6764   -3.0006   -4.4643 H         1 UNK         0.0819 
     92 H92        23.1243   -3.2069   -6.1499 H         1 UNK         0.0819 
     93 H93        24.3339   -3.4132   -4.8946 H         1 UNK         0.0819 
     94 H94        24.7230   -1.4276   -3.3882 H         1 UNK         0.3041 
     95 H95        24.9549    1.9445   -2.3538 H         1 UNK         0.0784 
     96 H96        22.6987    1.4033   -1.4146 H         1 UNK         0.0793 
     97 H97        23.2481   -0.2125   -0.9925 H         1 UNK         0.0793 
     98 H98        23.9560    1.2005   -0.2072 H         1 UNK         0.0793 
     99 H99        25.7409   -0.4278   -1.0183 H         1 UNK         0.3024 
    100 H100       28.7569   -1.0615   -2.7981 H         1 UNK         0.1171 
    101 H101       29.6964   -0.7296   -0.5090 H         1 UNK         0.0786 
    102 H102       29.3077    0.8159   -1.2480 H         1 UNK         0.0786 
    103 H103       28.2466    0.1409   -0.0195 H         1 UNK         0.0786 
    104 H104       27.9442   -2.3911   -0.5557 H         1 UNK         0.2977 
    105 H105       26.8944    0.9187   -5.4217 H         1 UNK         0.3127 
    106 H106       28.3958    2.8781   -6.6649 H         1 UNK         0.0770 
    107 H107       25.7259    3.1035   -5.1777 H         1 UNK         0.0814 
    108 H108       26.7731    4.4689   -5.5448 H         1 UNK         0.0814 
    109 H109       27.3410    3.2025   -4.4754 H         1 UNK         0.0814 
    110 H110       25.4419    1.4901   -7.9496 H         1 UNK         0.2983 
    111 H111       24.7516    3.6265   -9.7567 H         1 UNK         0.0947 
    112 H112       23.3843    1.8618  -10.8657 H         1 UNK         0.0806 
    113 H113       23.1472    1.8255   -9.1254 H         1 UNK         0.0806 
    114 H114       24.1684    0.6171   -9.9022 H         1 UNK         0.0806 
    115 H115       27.0835    0.9751   -9.8703 H         1 UNK         0.3000 
    116 H116       27.8970    1.6425  -12.6671 H         1 UNK         0.0850 
    117 H117       29.1993   -0.4786  -12.4906 H         1 UNK         0.0810 
    118 H118       27.4952   -0.7660  -12.1786 H         1 UNK         0.0810 
    119 H119       28.6402   -0.7103  -10.8394 H         1 UNK         0.0810 
    120 H120       28.8322    1.8592   -9.3181 H         1 UNK         0.3040 
    121 H121       30.4646    2.7539   -8.1434 H         1 UNK         0.0766 
    122 H122       31.5615    4.0910  -10.6728 H         1 UNK         0.0812 
    123 H123       31.9702    4.4903   -9.0130 H         1 UNK         0.0812 
    124 H124       30.3434    4.7887   -9.6046 H         1 UNK         0.0812 
    125 H125       30.5644    0.1612   -8.9984 H         1 UNK         0.3205 
    126 H126       32.8314   -0.7096  -10.3403 H         1 UNK         0.0754 
    127 H127       32.2370   -2.9583   -9.4316 H         1 UNK         0.0769 
    128 H128       30.8098   -2.0972   -9.9810 H         1 UNK         0.0769 
    129 H129       31.1641   -2.2138   -8.2577 H         1 UNK         0.0769 
    130 H130       32.5911    0.0342   -6.8874 H         1 UNK         0.2981 
    131 H131       35.3458   -0.9295   -6.4029 H         1 UNK         0.0541 
    132 H132       34.2766    1.8711   -7.8298 H         1 UNK         0.3459 
    133 H133       35.4545    2.9407   -7.1122 H         1 UNK         0.3459 
    134 H134       34.8993   -0.5235   -4.0020 H         1 UNK         0.0612 
    135 H135       33.8465   -1.6952   -4.7273 H         1 UNK         0.0612 
    136 H136       31.5529   -0.0954   -2.0077 H         1 UNK         0.0624 
    137 H137       33.1299   -0.8407   -2.0374 H         1 UNK         0.0624 
@<TRIPOS>BOND
     1    1    2 1    
     2    1   72 1    
     3    1   73 1    
     4    1   74 1    
     5    2    3 2    
     6    2    4 am   BACKBONE|DICT|INTERRES
     7    4    5 1    
     8    4   75 1    
     9    5    6 1    
    10    5   35 1    
    11    5   76 1    
    12    6    7 1    
    13    6   77 1    
    14    6   78 1    
    15    7    8 1    
    16    8    9 1    
    17    8   79 1    
    18    8   80 1    
    19    9   10 ar   
    20    9   14 ar   
    21   10   11 ar   
    22   10   81 1    
    23   11   12 ar   
    24   11   71 1    
    25   12   13 ar   
    26   12   82 1    
    27   13   14 ar   
    28   13   15 1    
    29   14   83 1    
    30   15   16 1    
    31   15   84 1    
    32   15   85 1    
    33   16   17 1    
    34   17   18 1    
    35   17   86 1    
    36   17   87 1    
    37   18   19 1    
    38   18   37 1    
    39   18   88 1    
    40   19   20 am   BACKBONE|DICT|INTERRES
    41   19   89 1    
    42   20   21 2    
    43   20   22 1    
    44   22   23 1    
    45   22   24 1    
    46   22   90 1    
    47   23   91 1    
    48   23   92 1    
    49   23   93 1    
    50   24   25 am   BACKBONE|DICT|INTERRES
    51   24   94 1    
    52   25   26 2    
    53   25   27 1    
    54   27   28 1    
    55   27   29 1    
    56   27   95 1    
    57   28   96 1    
    58   28   97 1    
    59   28   98 1    
    60   29   30 am   BACKBONE|DICT|INTERRES
    61   29   99 1    
    62   30   31 2    
    63   30   32 1    
    64   32   33 1    
    65   32   34 1    
    66   32  100 1    
    67   33  101 1    
    68   33  102 1    
    69   33  103 1    
    70   34   35 am   BACKBONE|DICT|INTERRES
    71   34  104 1    
    72   35   36 2    
    73   37   38 2    
    74   37   39 am   BACKBONE|DICT|INTERRES
    75   39   40 1    
    76   39  105 1    
    77   40   41 1    
    78   40   42 1    
    79   40  106 1    
    80   41  107 1    
    81   41  108 1    
    82   41  109 1    
    83   42   43 2    
    84   42   44 am   BACKBONE|DICT|INTERRES
    85   44   45 1    
    86   44  110 1    
    87   45   46 1    
    88   45   47 1    
    89   45  111 1    
    90   46  112 1    
    91   46  113 1    
    92   46  114 1    
    93   47   48 2    
    94   47   49 am   BACKBONE|DICT|INTERRES
    95   49   50 1    
    96   49  115 1    
    97   50   51 1    
    98   50   52 1    
    99   50  116 1    
   100   51  117 1    
   101   51  118 1    
   102   51  119 1    
   103   52   53 2    
   104   52   54 am   BACKBONE|DICT|INTERRES
   105   54   55 1    
   106   54  120 1    
   107   55   56 1    
   108   55   57 1    
   109   55  121 1    
   110   56  122 1    
   111   56  123 1    
   112   56  124 1    
   113   57   58 2    
   114   57   59 am   BACKBONE|DICT|INTERRES
   115   59   60 1    
   116   59  125 1    
   117   60   61 1    
   118   60   62 1    
   119   60  126 1    
   120   61  127 1    
   121   61  128 1    
   122   61  129 1    
   123   62   63 2    
   124   62   64 am   BACKBONE|DICT|INTERRES
   125   64   65 1    
   126   64  130 1    
   127   65   66 1    
   128   65   69 1    
   129   65  131 1    
   130   66   67 am   BACKBONE|DICT|INTERRES
   131   66   68 2    
   132   67  132 1    
   133   67  133 1    
   134   69   70 1    
   135   69  134 1    
   136   69  135 1    
   137   70   71 1    
   138   71  136 1    
   139   71  137 1    
@<TRIPOS>SUBSTRUCTURE
     1 UNK         1 GROUP             0       ****    0 ROOT    
