@<TRIPOS>MOLECULE
3R137
137   139    1
SMALL
USER_CHARGES


@<TRIPOS>ATOM
      1 CA         29.2962   -5.5248   -4.9815 C.3       0 UNK        -0.2020 
      2 C          28.0753   -4.9664   -4.2669 C.2       0 UNK         0.4855 
      3 O          26.9625   -5.0790   -4.7818 O.2       0 UNK        -0.5197 
      4 N          28.2759   -4.3692   -3.0843 N.am      1 UNK        -0.4892 
      5 CA         27.2284   -3.8288   -2.2088 C.3       1 UNK         0.0835 
      6 C6         27.7908   -3.2959   -0.8623 C.3       12 UNK        -0.0855 
      7 S7         29.0101   -4.4138   -0.0811 S.3       12 UNK        -0.2931 
      8 C8         30.3540   -3.2709    0.3971 C.3       12 UNK         0.0378 
      9 C9         30.9032   -2.4628   -0.7743 C.ar      12 UNK        -0.0802 
     10 C10        31.5704   -3.1007   -1.8253 C.ar      12 UNK        -0.0944 
     11 C11        32.0660   -2.3687   -2.9092 C.ar      12 UNK        -0.0787 
     12 C12        31.8708   -0.9795   -2.9303 C.ar      12 UNK        -0.0862 
     13 C13        31.2237   -0.3212   -1.8801 C.ar      12 UNK        -0.0733 
     14 C14        30.7510   -1.0717   -0.7986 C.ar      12 UNK        -0.0832 
     15 C15        31.0902    1.2029   -1.9240 C.3       12 UNK         0.0240 
     16 S16        29.4975    1.8762   -1.3231 S.3       12 UNK        -0.2522 
     17 C17        28.2860    1.0089   -2.3693 C.3       12 UNK        -0.0967 
     18 CA         28.2393    1.5165   -3.8382 C.3       5 UNK         0.0660 
     19 N          28.1359    0.3856   -4.7540 N.am      5 UNK        -0.4015 
     20 C          28.8186    0.2603   -5.8956 C.2       4 UNK         0.4946 
     21 O          29.4391    1.1651   -6.4547 O.2       4 UNK        -0.5353 
     22 CA         28.8665   -1.1489   -6.4929 C.3       4 UNK         0.0277 
     23 CB         29.8714   -2.0094   -5.7201 C.3       4 UNK        -0.1981 
     24 N          27.5674   -1.8127   -6.5037 N.am      4 UNK        -0.4209 
     25 C          26.5727   -1.4926   -7.3375 C.2       3 UNK         0.4942 
     26 O          26.6473   -0.5902   -8.1709 O.2       3 UNK        -0.5208 
     27 CA         25.2772   -2.3087   -7.1940 C.3       3 UNK         0.0250 
     28 CB         25.4274   -3.6860   -7.8592 C.3       3 UNK        -0.1990 
     29 N          24.8694   -2.4723   -5.7964 N.am      3 UNK        -0.4232 
     30 C          24.5252   -1.4525   -4.9973 C.2       2 UNK         0.4993 
     31 O          24.5034   -0.2775   -5.3630 O.2       2 UNK        -0.5286 
     32 CA         24.2199   -1.7807   -3.5251 C.3       2 UNK         0.0209 
     33 CB         22.7547   -2.2137   -3.3618 C.3       2 UNK        -0.1931 
     34 N          25.1068   -2.7914   -2.9330 N.am      2 UNK        -0.4546 
     35 C          26.4447   -2.7104   -2.9194 C.2       1 UNK         0.5154 
     36 O          27.0740   -1.7909   -3.4447 O.2       1 UNK        -0.5181 
     37 C          27.1270    2.5585   -4.0578 C.2       5 UNK         0.5014 
     38 O          27.4199    3.7538   -4.0030 O.2       5 UNK        -0.5248 
     39 N          25.8811    2.1142   -4.2914 N.am      6 UNK        -0.4434 
     40 CA         24.7192    3.0004   -4.4329 C.3       6 UNK         0.0363 
     41 CB         23.4994    2.4108   -3.7029 C.3       6 UNK        -0.1936 
     42 C          24.4056    3.2784   -5.9082 C.2       6 UNK         0.5081 
     43 O          24.2278    4.4398   -6.2757 O.2       6 UNK        -0.5248 
     44 N          24.3772    2.2244   -6.7378 N.am      7 UNK        -0.4718 
     45 CA         24.1925    2.3310   -8.1929 C.3       7 UNK         0.0273 
     46 CB         23.5828    1.0318   -8.7401 C.3       7 UNK        -0.1935 
     47 C          25.4872    2.7084   -8.9426 C.2       7 UNK         0.5018 
     48 O          25.4270    2.9755  -10.1435 O.2       7 UNK        -0.5186 
     49 N          26.6130    2.7617   -8.2160 N.am      8 UNK        -0.4240 
     50 CA         27.9207    3.2824   -8.6211 C.3       8 UNK         0.0235 
     51 CB         27.8295    4.7848   -8.9699 C.3       8 UNK        -0.2000 
     52 C          28.6359    2.4542   -9.7057 C.2       8 UNK         0.4941 
     53 O          29.3446    3.0312  -10.5330 O.2       8 UNK        -0.5273 
     54 N          28.5012    1.1181   -9.6667 N.am      9 UNK        -0.4262 
     55 CA         29.2797    0.2022  -10.5152 C.3       9 UNK         0.0264 
     56 CB         28.5982   -1.1754  -10.5825 C.3       9 UNK        -0.1955 
     57 C          30.7607    0.0686  -10.0962 C.2       9 UNK         0.5031 
     58 O          31.5294   -0.5468  -10.8370 O.2       9 UNK        -0.5390 
     59 N          31.1408    0.6283   -8.9335 N.am      10 UNK        -0.4204 
     60 CA         32.5132    0.7762   -8.4241 C.3       10 UNK         0.0237 
     61 CB         33.2866    1.8094   -9.2706 C.3       10 UNK        -0.1985 
     62 C          33.2726   -0.5566   -8.2694 C.2       10 UNK         0.4970 
     63 O          34.4712   -0.6248   -8.5469 O.2       10 UNK        -0.4914 
     64 N          32.5422   -1.5871   -7.8283 N.am      11 UNK        -0.4285 
     65 CA         33.0046   -2.9679   -7.6066 C.3       11 UNK         0.1007 
     66 C          33.3089   -3.7618   -8.9137 C.2       11 UNK         0.5703 
     67 N          32.9519   -3.2679  -10.0951 N.am      11 UNK        -0.7361 
     68 O          33.8468   -4.8651   -8.8563 O.2       11 UNK        -0.4986 
     69 C69        34.1405   -3.1015   -6.5433 C.3       12 UNK        -0.0947 
     70 S70        33.9036   -2.0858   -5.0431 S.3       12 UNK        -0.2240 
     71 C71        32.7735   -3.1158   -4.0458 C.3       12 UNK         0.0194 
     72 H72        30.2252   -5.1776   -4.5311 H         1 UNK         0.0906 
     73 H73        29.2845   -6.6135   -4.9396 H         1 UNK         0.0906 
     74 H74        29.2904   -5.2287   -6.0298 H         1 UNK         0.0906 
     75 H75        29.2104   -4.2943   -2.7085 H         1 UNK         0.3140 
     76 H76        26.5445   -4.6517   -1.9911 H         1 UNK         0.1085 
     77 H77        26.9748   -3.1410   -0.1540 H         1 UNK         0.0836 
     78 H78        28.2443   -2.3137   -1.0008 H         1 UNK         0.0836 
     79 H79        31.1657   -3.8488    0.8410 H         1 UNK         0.0731 
     80 H80        29.9862   -2.6105    1.1841 H         1 UNK         0.0731 
     81 H81        31.6989   -4.1744   -1.7978 H         1 UNK         0.1312 
     82 H82        32.2307   -0.3939   -3.7638 H         1 UNK         0.1406 
     83 H83        30.2546   -0.5707    0.0214 H         1 UNK         0.1631 
     84 H84        31.2501    1.5666   -2.9400 H         1 UNK         0.0717 
     85 H85        31.8914    1.6320   -1.3212 H         1 UNK         0.0717 
     86 H86        28.5531   -0.0469   -2.3316 H         1 UNK         0.0934 
     87 H87        27.3067    1.0590   -1.8887 H         1 UNK         0.0934 
     88 H88        29.1807    2.0261   -4.0544 H         1 UNK         0.0739 
     89 H89        27.6806   -0.4453   -4.3741 H         1 UNK         0.3093 
     90 H90        29.2176   -1.0594   -7.5202 H         1 UNK         0.0818 
     91 H91        29.5384   -2.2074   -4.7005 H         1 UNK         0.0819 
     92 H92        30.0320   -2.9649   -6.2155 H         1 UNK         0.0819 
     93 H93        30.8361   -1.5084   -5.6454 H         1 UNK         0.0819 
     94 H94        27.3994   -2.5206   -5.8019 H         1 UNK         0.3041 
     95 H95        24.4797   -1.7732   -7.7094 H         1 UNK         0.0784 
     96 H96        26.1873   -4.2950   -7.3678 H         1 UNK         0.0793 
     97 H97        25.7181   -3.5831   -8.9057 H         1 UNK         0.0793 
     98 H98        24.4891   -4.2405   -7.8378 H         1 UNK         0.0793 
     99 H99        24.9134   -3.4038   -5.4060 H         1 UNK         0.3024 
    100 H100       24.3642   -0.8572   -2.9599 H         1 UNK         0.1171 
    101 H101       22.4900   -2.3322   -2.3109 H         1 UNK         0.0786 
    102 H102       22.0784   -1.4669   -3.7809 H         1 UNK         0.0786 
    103 H103       22.5524   -3.1580   -3.8687 H         1 UNK         0.0786 
    104 H104       24.6593   -3.5828   -2.4926 H         1 UNK         0.2977 
    105 H105       25.7072    1.1226   -4.4105 H         1 UNK         0.3127 
    106 H106       24.9318    3.9614   -3.9588 H         1 UNK         0.0770 
    107 H107       23.1433    1.4882   -4.1590 H         1 UNK         0.0814 
    108 H108       22.6665    3.1149   -3.7187 H         1 UNK         0.0814 
    109 H109       23.7258    2.2027   -2.6572 H         1 UNK         0.0814 
    110 H110       24.4890    1.2892   -6.3484 H         1 UNK         0.2983 
    111 H111       23.4747    3.1313   -8.3869 H         1 UNK         0.0947 
    112 H112       23.2666    1.1608   -9.7758 H         1 UNK         0.0806 
    113 H113       22.7074    0.7248   -8.1678 H         1 UNK         0.0806 
    114 H114       24.3001    0.2161   -8.7277 H         1 UNK         0.0806 
    115 H115       26.5362    2.4757   -7.2507 H         1 UNK         0.3000 
    116 H116       28.5516    3.2107   -7.7352 H         1 UNK         0.0850 
    117 H117       28.8217    5.2161   -9.1082 H         1 UNK         0.0810 
    118 H118       27.3426    5.3482   -8.1737 H         1 UNK         0.0810 
    119 H119       27.2717    4.9540   -9.8914 H         1 UNK         0.0810 
    120 H120       27.8557    0.6939   -9.0038 H         1 UNK         0.3040 
    121 H121       29.2792    0.6099  -11.5284 H         1 UNK         0.0766 
    122 H122       27.5492   -1.0869  -10.8657 H         1 UNK         0.0812 
    123 H123       28.6458   -1.7076   -9.6341 H         1 UNK         0.0812 
    124 H124       29.0807   -1.8091  -11.3278 H         1 UNK         0.0812 
    125 H125       30.4226    1.0528   -8.3554 H         1 UNK         0.3205 
    126 H126       32.4181    1.1833   -7.4161 H         1 UNK         0.0754 
    127 H127       34.2600    2.0297   -8.8305 H         1 UNK         0.0769 
    128 H128       32.7429    2.7519   -9.3390 H         1 UNK         0.0769 
    129 H129       33.4609    1.4493  -10.2853 H         1 UNK         0.0769 
    130 H130       31.5611   -1.4275   -7.6688 H         1 UNK         0.2981 
    131 H131       32.1377   -3.4810   -7.1924 H         1 UNK         0.0541 
    132 H132       32.5187   -2.3561  -10.1750 H         1 UNK         0.3459 
    133 H133       33.1462   -3.8022  -10.9267 H         1 UNK         0.3459 
    134 H134       35.0962   -2.8091   -6.9813 H         1 UNK         0.0612 
    135 H135       34.2573   -4.1432   -6.2395 H         1 UNK         0.0612 
    136 H136       33.3480   -3.9493   -3.6390 H         1 UNK         0.0624 
    137 H137       32.0175   -3.5505   -4.6977 H         1 UNK         0.0624 
@<TRIPOS>BOND
     1    1    2 1    
     2    1   72 1    
     3    1   73 1    
     4    1   74 1    
     5    2    3 2    
     6    2    4 am   BACKBONE|DICT|INTERRES
     7    4    5 1    
     8    4   75 1    
     9    5    6 1    
    10    5   35 1    
    11    5   76 1    
    12    6    7 1    
    13    6   77 1    
    14    6   78 1    
    15    7    8 1    
    16    8    9 1    
    17    8   79 1    
    18    8   80 1    
    19    9   10 ar   
    20    9   14 ar   
    21   10   11 ar   
    22   10   81 1    
    23   11   12 ar   
    24   11   71 1    
    25   12   13 ar   
    26   12   82 1    
    27   13   14 ar   
    28   13   15 1    
    29   14   83 1    
    30   15   16 1    
    31   15   84 1    
    32   15   85 1    
    33   16   17 1    
    34   17   18 1    
    35   17   86 1    
    36   17   87 1    
    37   18   19 1    
    38   18   37 1    
    39   18   88 1    
    40   19   20 am   BACKBONE|DICT|INTERRES
    41   19   89 1    
    42   20   21 2    
    43   20   22 1    
    44   22   23 1    
    45   22   24 1    
    46   22   90 1    
    47   23   91 1    
    48   23   92 1    
    49   23   93 1    
    50   24   25 am   BACKBONE|DICT|INTERRES
    51   24   94 1    
    52   25   26 2    
    53   25   27 1    
    54   27   28 1    
    55   27   29 1    
    56   27   95 1    
    57   28   96 1    
    58   28   97 1    
    59   28   98 1    
    60   29   30 am   BACKBONE|DICT|INTERRES
    61   29   99 1    
    62   30   31 2    
    63   30   32 1    
    64   32   33 1    
    65   32   34 1    
    66   32  100 1    
    67   33  101 1    
    68   33  102 1    
    69   33  103 1    
    70   34   35 am   BACKBONE|DICT|INTERRES
    71   34  104 1    
    72   35   36 2    
    73   37   38 2    
    74   37   39 am   BACKBONE|DICT|INTERRES
    75   39   40 1    
    76   39  105 1    
    77   40   41 1    
    78   40   42 1    
    79   40  106 1    
    80   41  107 1    
    81   41  108 1    
    82   41  109 1    
    83   42   43 2    
    84   42   44 am   BACKBONE|DICT|INTERRES
    85   44   45 1    
    86   44  110 1    
    87   45   46 1    
    88   45   47 1    
    89   45  111 1    
    90   46  112 1    
    91   46  113 1    
    92   46  114 1    
    93   47   48 2    
    94   47   49 am   BACKBONE|DICT|INTERRES
    95   49   50 1    
    96   49  115 1    
    97   50   51 1    
    98   50   52 1    
    99   50  116 1    
   100   51  117 1    
   101   51  118 1    
   102   51  119 1    
   103   52   53 2    
   104   52   54 am   BACKBONE|DICT|INTERRES
   105   54   55 1    
   106   54  120 1    
   107   55   56 1    
   108   55   57 1    
   109   55  121 1    
   110   56  122 1    
   111   56  123 1    
   112   56  124 1    
   113   57   58 2    
   114   57   59 am   BACKBONE|DICT|INTERRES
   115   59   60 1    
   116   59  125 1    
   117   60   61 1    
   118   60   62 1    
   119   60  126 1    
   120   61  127 1    
   121   61  128 1    
   122   61  129 1    
   123   62   63 2    
   124   62   64 am   BACKBONE|DICT|INTERRES
   125   64   65 1    
   126   64  130 1    
   127   65   66 1    
   128   65   69 1    
   129   65  131 1    
   130   66   67 am   BACKBONE|DICT|INTERRES
   131   66   68 2    
   132   67  132 1    
   133   67  133 1    
   134   69   70 1    
   135   69  134 1    
   136   69  135 1    
   137   70   71 1    
   138   71  136 1    
   139   71  137 1    
@<TRIPOS>SUBSTRUCTURE
     1 UNK         1 GROUP             0       ****    0 ROOT    
