@<TRIPOS>MOLECULE
3R137
137   139    1
SMALL
USER_CHARGES


@<TRIPOS>ATOM
      1 CA         24.7917   -6.0386   -5.2035 C.3       0 UNK        -0.2020 
      2 C          25.0031   -5.3239   -3.8779 C.2       0 UNK         0.4855 
      3 O          24.0494   -4.7943   -3.3060 O.2       0 UNK        -0.5197 
      4 N          26.2505   -5.3009   -3.3926 N.am      1 UNK        -0.4892 
      5 CA         26.7062   -4.6360   -2.1662 C.3       1 UNK         0.0835 
      6 C6         28.2082   -4.9187   -1.8691 C.3       12 UNK        -0.0855 
      7 S7         29.2997   -4.9888   -3.3416 S.3       12 UNK        -0.2931 
      8 C8         30.8811   -4.3625   -2.6933 C.3       12 UNK         0.0378 
      9 C9         31.0825   -2.8890   -3.0155 C.ar      12 UNK        -0.0802 
     10 C10        31.8684   -2.5063   -4.1067 C.ar      12 UNK        -0.0944 
     11 C11        32.0889   -1.1532   -4.3835 C.ar      12 UNK        -0.0787 
     12 C12        31.4940   -0.1771   -3.5787 C.ar      12 UNK        -0.0862 
     13 C13        30.6998   -0.5471   -2.4897 C.ar      12 UNK        -0.0733 
     14 C14        30.5083   -1.9047   -2.2083 C.ar      12 UNK        -0.0832 
     15 C15        30.0779    0.5132   -1.5920 C.3       12 UNK         0.0240 
     16 S16        28.2828    0.2760   -1.4264 S.3       12 UNK        -0.2522 
     17 C17        27.5898    1.6175   -2.4402 C.3       12 UNK        -0.0967 
     18 CA         27.7583    1.4861   -3.9797 C.3       5 UNK         0.0660 
     19 N          27.4380    0.1603   -4.5275 N.am      5 UNK        -0.4015 
     20 C          27.5608   -0.1739   -5.8252 C.2       4 UNK         0.4946 
     21 O          28.0426    0.5626   -6.6860 O.2       4 UNK        -0.5353 
     22 CA         26.9778   -1.5222   -6.2694 C.3       4 UNK         0.0277 
     23 CB         27.9954   -2.6577   -6.0775 C.3       4 UNK        -0.1981 
     24 N          25.7218   -1.8168   -5.5774 N.am      4 UNK        -0.4209 
     25 C          24.5684   -1.1760   -5.8284 C.2       3 UNK         0.4942 
     26 O          24.4380   -0.3319   -6.7135 O.2       3 UNK        -0.5208 
     27 CA         23.3679   -1.4813   -4.9172 C.3       3 UNK         0.0250 
     28 CB         22.5226   -2.6296   -5.4884 C.3       3 UNK        -0.1990 
     29 N          23.7696   -1.7838   -3.5425 N.am      3 UNK        -0.4232 
     30 C          24.2896   -0.8708   -2.7076 C.2       2 UNK         0.4993 
     31 O          24.4154    0.3202   -2.9960 O.2       2 UNK        -0.5286 
     32 CA         24.8073   -1.3732   -1.3476 C.3       2 UNK         0.0209 
     33 CB         23.6924   -1.3070   -0.2922 C.3       2 UNK        -0.1931 
     34 N          25.3641   -2.7311   -1.3868 N.am      2 UNK        -0.4546 
     35 C          26.3675   -3.1309   -2.1827 C.2       1 UNK         0.5154 
     36 O          26.9558   -2.3787   -2.9585 O.2       1 UNK        -0.5181 
     37 C          26.9245    2.5901   -4.6631 C.2       5 UNK         0.5014 
     38 O          27.4887    3.5874   -5.1139 O.2       5 UNK        -0.5248 
     39 N          25.5995    2.3809   -4.7258 N.am      6 UNK        -0.4434 
     40 CA         24.6288    3.3026   -5.3205 C.3       6 UNK         0.0363 
     41 CB         23.2036    2.8148   -5.0154 C.3       6 UNK        -0.1936 
     42 C          24.8212    3.5014   -6.8329 C.2       6 UNK         0.5081 
     43 O          24.7572    4.6370   -7.3045 O.2       6 UNK        -0.5248 
     44 N          25.0610    2.4048   -7.5647 N.am      7 UNK        -0.4718 
     45 CA         25.3161    2.4192   -9.0084 C.3       7 UNK         0.0273 
     46 CB         25.1120    1.0011   -9.5668 C.3       7 UNK        -0.1935 
     47 C          26.7178    2.9315   -9.3848 C.2       7 UNK         0.5018 
     48 O          26.9194    3.3038  -10.5414 O.2       7 UNK        -0.5186 
     49 N          27.6560    2.9019   -8.4254 N.am      8 UNK        -0.4240 
     50 CA         29.1020    3.0993   -8.5837 C.3       8 UNK         0.0235 
     51 CB         29.4320    4.5457   -9.0102 C.3       8 UNK        -0.2000 
     52 C          29.7132    2.0273   -9.5085 C.2       8 UNK         0.4941 
     53 O          30.5040    2.3478  -10.3986 O.2       8 UNK        -0.5273 
     54 N          29.2995    0.7732   -9.2911 N.am      9 UNK        -0.4262 
     55 CA         29.7335   -0.4022  -10.0420 C.3       9 UNK         0.0264 
     56 CB         28.5409   -1.3616  -10.1891 C.3       9 UNK        -0.1955 
     57 C          30.8883   -1.0928   -9.3062 C.2       9 UNK         0.5031 
     58 O          30.9554   -1.0141   -8.0790 O.2       9 UNK        -0.5390 
     59 N          31.7451   -1.7855  -10.0705 N.am      10 UNK        -0.4204 
     60 CA         32.9618   -2.4814   -9.6269 C.3       10 UNK         0.0237 
     61 CB         32.6169   -3.6589   -8.6838 C.3       10 UNK        -0.1985 
     62 C          34.0215   -1.5085   -9.0630 C.2       10 UNK         0.4970 
     63 O          34.0403   -0.3414   -9.4609 O.2       10 UNK        -0.4914 
     64 N          34.9088   -2.0109   -8.1909 N.am      11 UNK        -0.4285 
     65 CA         36.0244   -1.2729   -7.5639 C.3       11 UNK         0.1007 
     66 C          37.1168   -0.7729   -8.5627 C.2       11 UNK         0.5703 
     67 N          37.2219   -1.3368   -9.7607 N.am      11 UNK        -0.7361 
     68 O          37.9086    0.1106   -8.2415 O.2       11 UNK        -0.4986 
     69 C69        35.5383   -0.1649   -6.5804 C.3       12 UNK        -0.0947 
     70 S70        34.7352   -0.8444   -5.0909 S.3       12 UNK        -0.2240 
     71 C71        32.9794   -0.7488   -5.5461 C.3       12 UNK         0.0194 
     72 H72        24.7173   -5.3155   -6.0149 H         1 UNK         0.0906 
     73 H73        25.6117   -6.7203   -5.4289 H         1 UNK         0.0906 
     74 H74        23.8701   -6.6194   -5.1764 H         1 UNK         0.0906 
     75 H75        26.9995   -5.7162   -3.9304 H         1 UNK         0.3140 
     76 H76        26.1365   -5.0812   -1.3476 H         1 UNK         0.1085 
     77 H77        28.2906   -5.8897   -1.3783 H         1 UNK         0.0836 
     78 H78        28.6007   -4.2020   -1.1457 H         1 UNK         0.0836 
     79 H79        31.6888   -4.9506   -3.1315 H         1 UNK         0.0731 
     80 H80        30.9439   -4.5277   -1.6167 H         1 UNK         0.0731 
     81 H81        32.3254   -3.2604   -4.7329 H         1 UNK         0.1312 
     82 H82        31.6620    0.8692   -3.7937 H         1 UNK         0.1406 
     83 H83        29.9010   -2.1931   -1.3619 H         1 UNK         0.1631 
     84 H84        30.2912    1.5186   -1.9575 H         1 UNK         0.0717 
     85 H85        30.5321    0.4423   -0.6029 H         1 UNK         0.0717 
     86 H86        26.5335    1.6758   -2.1717 H         1 UNK         0.0934 
     87 H87        28.0250    2.5586   -2.0979 H         1 UNK         0.0934 
     88 H88        28.8077    1.6709   -4.2180 H         1 UNK         0.0739 
     89 H89        27.1094   -0.5414   -3.8713 H         1 UNK         0.3093 
     90 H90        26.7567   -1.4526   -7.3362 H         1 UNK         0.0818 
     91 H91        27.5734   -3.6270   -6.3418 H         1 UNK         0.0819 
     92 H92        28.8706   -2.4982   -6.7092 H         1 UNK         0.0819 
     93 H93        28.3572   -2.7141   -5.0514 H         1 UNK         0.0819 
     94 H94        25.7880   -2.4160   -4.7645 H         1 UNK         0.3041 
     95 H95        22.7401   -0.5881   -4.8918 H         1 UNK         0.0784 
     96 H96        22.1605   -2.3840   -6.4877 H         1 UNK         0.0793 
     97 H97        23.0927   -3.5539   -5.5689 H         1 UNK         0.0793 
     98 H98        21.6493   -2.8274   -4.8667 H         1 UNK         0.0793 
     99 H99        23.7321   -2.7566   -3.2524 H         1 UNK         0.3024 
    100 H100       25.6063   -0.6982   -1.0392 H         1 UNK         0.1171 
    101 H101       24.0682   -1.5609    0.6992 H         1 UNK         0.0786 
    102 H102       23.2744   -0.3011   -0.2298 H         1 UNK         0.0786 
    103 H103       22.8725   -1.9871   -0.5267 H         1 UNK         0.0786 
    104 H104       24.8979   -3.4211   -0.8150 H         1 UNK         0.2977 
    105 H105       25.2184    1.5511   -4.2765 H         1 UNK         0.3127 
    106 H106       24.7644    4.2742   -4.8408 H         1 UNK         0.0770 
    107 H107       23.0096    1.8364   -5.4557 H         1 UNK         0.0814 
    108 H108       22.4604    3.5060   -5.4151 H         1 UNK         0.0814 
    109 H109       23.0313    2.7379   -3.9416 H         1 UNK         0.0814 
    110 H110       25.0305    1.4921   -7.1166 H         1 UNK         0.2983 
    111 H111       24.5882    3.0819   -9.4817 H         1 UNK         0.0947 
    112 H112       25.8104    0.2909   -9.1220 H         1 UNK         0.0806 
    113 H113       25.2653    0.9774  -10.6466 H         1 UNK         0.0806 
    114 H114       24.1012    0.6406   -9.3751 H         1 UNK         0.0806 
    115 H115       27.3777    2.5316   -7.5242 H         1 UNK         0.3000 
    116 H116       29.5391    2.9372   -7.5969 H         1 UNK         0.0850 
    117 H117       28.9835    5.2701   -8.3304 H         1 UNK         0.0810 
    118 H118       29.0779    4.7654  -10.0176 H         1 UNK         0.0810 
    119 H119       30.5092    4.7161   -9.0019 H         1 UNK         0.0810 
    120 H120       28.7565    0.5962   -8.4480 H         1 UNK         0.3040 
    121 H121       30.0684   -0.1025  -11.0375 H         1 UNK         0.0766 
    122 H122       28.8097   -2.2315  -10.7896 H         1 UNK         0.0812 
    123 H123       27.6985   -0.8753  -10.6815 H         1 UNK         0.0812 
    124 H124       28.1984   -1.7287   -9.2215 H         1 UNK         0.0812 
    125 H125       31.6037   -1.7666  -11.0710 H         1 UNK         0.3205 
    126 H126       33.4036   -2.9068  -10.5291 H         1 UNK         0.0754 
    127 H127       33.4773   -4.3081   -8.5196 H         1 UNK         0.0769 
    128 H128       31.8315   -4.2832   -9.1103 H         1 UNK         0.0769 
    129 H129       32.2688   -3.3174   -7.7087 H         1 UNK         0.0769 
    130 H130       34.8351   -2.9844   -7.9355 H         1 UNK         0.2981 
    131 H131       36.5540   -2.0151   -6.9657 H         1 UNK         0.0541 
    132 H132       37.9375   -1.0168  -10.3942 H         1 UNK         0.3459 
    133 H133       36.5956   -2.0751  -10.0374 H         1 UNK         0.3459 
    134 H134       36.3805    0.4253   -6.2161 H         1 UNK         0.0612 
    135 H135       34.8743    0.5443   -7.0761 H         1 UNK         0.0612 
    136 H136       32.8008   -1.4181   -6.3842 H         1 UNK         0.0624 
    137 H137       32.7345    0.2580   -5.8881 H         1 UNK         0.0624 
@<TRIPOS>BOND
     1    1    2 1    
     2    1   72 1    
     3    1   73 1    
     4    1   74 1    
     5    2    3 2    
     6    2    4 am   BACKBONE|DICT|INTERRES
     7    4    5 1    
     8    4   75 1    
     9    5    6 1    
    10    5   35 1    
    11    5   76 1    
    12    6    7 1    
    13    6   77 1    
    14    6   78 1    
    15    7    8 1    
    16    8    9 1    
    17    8   79 1    
    18    8   80 1    
    19    9   10 ar   
    20    9   14 ar   
    21   10   11 ar   
    22   10   81 1    
    23   11   12 ar   
    24   11   71 1    
    25   12   13 ar   
    26   12   82 1    
    27   13   14 ar   
    28   13   15 1    
    29   14   83 1    
    30   15   16 1    
    31   15   84 1    
    32   15   85 1    
    33   16   17 1    
    34   17   18 1    
    35   17   86 1    
    36   17   87 1    
    37   18   19 1    
    38   18   37 1    
    39   18   88 1    
    40   19   20 am   BACKBONE|DICT|INTERRES
    41   19   89 1    
    42   20   21 2    
    43   20   22 1    
    44   22   23 1    
    45   22   24 1    
    46   22   90 1    
    47   23   91 1    
    48   23   92 1    
    49   23   93 1    
    50   24   25 am   BACKBONE|DICT|INTERRES
    51   24   94 1    
    52   25   26 2    
    53   25   27 1    
    54   27   28 1    
    55   27   29 1    
    56   27   95 1    
    57   28   96 1    
    58   28   97 1    
    59   28   98 1    
    60   29   30 am   BACKBONE|DICT|INTERRES
    61   29   99 1    
    62   30   31 2    
    63   30   32 1    
    64   32   33 1    
    65   32   34 1    
    66   32  100 1    
    67   33  101 1    
    68   33  102 1    
    69   33  103 1    
    70   34   35 am   BACKBONE|DICT|INTERRES
    71   34  104 1    
    72   35   36 2    
    73   37   38 2    
    74   37   39 am   BACKBONE|DICT|INTERRES
    75   39   40 1    
    76   39  105 1    
    77   40   41 1    
    78   40   42 1    
    79   40  106 1    
    80   41  107 1    
    81   41  108 1    
    82   41  109 1    
    83   42   43 2    
    84   42   44 am   BACKBONE|DICT|INTERRES
    85   44   45 1    
    86   44  110 1    
    87   45   46 1    
    88   45   47 1    
    89   45  111 1    
    90   46  112 1    
    91   46  113 1    
    92   46  114 1    
    93   47   48 2    
    94   47   49 am   BACKBONE|DICT|INTERRES
    95   49   50 1    
    96   49  115 1    
    97   50   51 1    
    98   50   52 1    
    99   50  116 1    
   100   51  117 1    
   101   51  118 1    
   102   51  119 1    
   103   52   53 2    
   104   52   54 am   BACKBONE|DICT|INTERRES
   105   54   55 1    
   106   54  120 1    
   107   55   56 1    
   108   55   57 1    
   109   55  121 1    
   110   56  122 1    
   111   56  123 1    
   112   56  124 1    
   113   57   58 2    
   114   57   59 am   BACKBONE|DICT|INTERRES
   115   59   60 1    
   116   59  125 1    
   117   60   61 1    
   118   60   62 1    
   119   60  126 1    
   120   61  127 1    
   121   61  128 1    
   122   61  129 1    
   123   62   63 2    
   124   62   64 am   BACKBONE|DICT|INTERRES
   125   64   65 1    
   126   64  130 1    
   127   65   66 1    
   128   65   69 1    
   129   65  131 1    
   130   66   67 am   BACKBONE|DICT|INTERRES
   131   66   68 2    
   132   67  132 1    
   133   67  133 1    
   134   69   70 1    
   135   69  134 1    
   136   69  135 1    
   137   70   71 1    
   138   71  136 1    
   139   71  137 1    
@<TRIPOS>SUBSTRUCTURE
     1 UNK         1 GROUP             0       ****    0 ROOT    
