@<TRIPOS>MOLECULE
3R137
137   139    1
SMALL
USER_CHARGES


@<TRIPOS>ATOM
      1 CA         24.5072   -6.7210   -4.8445 C.3       0 UNK        -0.2020 
      2 C          24.9979   -5.4558   -4.1598 C.2       0 UNK         0.4855 
      3 O          24.3898   -4.3973   -4.3280 O.2       0 UNK        -0.5197 
      4 N          26.0764   -5.5585   -3.3673 N.am      1 UNK        -0.4892 
      5 CA         26.7845   -4.4591   -2.6821 C.3       1 UNK         0.0835 
      6 C6         27.4945   -3.5008   -3.6751 C.3       12 UNK        -0.0855 
      7 S7         28.7681   -4.3054   -4.7047 S.3       12 UNK        -0.2931 
      8 C8         30.2881   -4.0216   -3.7360 C.3       12 UNK         0.0378 
      9 C9         30.6700   -2.5483   -3.6551 C.ar      12 UNK        -0.0802 
     10 C10        31.4132   -1.9488   -4.6772 C.ar      12 UNK        -0.0944 
     11 C11        31.7829   -0.6022   -4.5883 C.ar      12 UNK        -0.0787 
     12 C12        31.3811    0.1522   -3.4813 C.ar      12 UNK        -0.0862 
     13 C13        30.6286   -0.4342   -2.4596 C.ar      12 UNK        -0.0733 
     14 C14        30.2982   -1.7885   -2.5417 C.ar      12 UNK        -0.0832 
     15 C15        30.1770    0.3873   -1.2604 C.3       12 UNK         0.0240 
     16 S16        28.9492    1.6563   -1.7099 S.3       12 UNK        -0.2522 
     17 C17        27.5735    0.6749   -2.4108 C.3       12 UNK        -0.0967 
     18 CA         27.4874    0.7468   -3.9590 C.3       5 UNK         0.0660 
     19 N          26.5569   -0.2590   -4.4895 N.am      5 UNK        -0.4015 
     20 C          26.3550   -0.5007   -5.7943 C.2       4 UNK         0.4946 
     21 O          27.0408    0.0016   -6.6821 O.2       4 UNK        -0.5353 
     22 CA         25.1426   -1.3565   -6.2062 C.3       4 UNK         0.0277 
     23 CB         25.5583   -2.6033   -7.0074 C.3       4 UNK        -0.1981 
     24 N          24.2361   -1.7304   -5.1137 N.am      4 UNK        -0.4209 
     25 C          23.4448   -0.8694   -4.4552 C.2       3 UNK         0.4942 
     26 O          23.5112    0.3526   -4.5990 O.2       3 UNK        -0.5208 
     27 CA         22.4288   -1.4558   -3.4667 C.3       3 UNK         0.0250 
     28 CB         21.2459   -2.0877   -4.2195 C.3       3 UNK        -0.1990 
     29 N          23.0403   -2.4576   -2.5915 N.am      3 UNK        -0.4232 
     30 C          23.0240   -2.4151   -1.2504 C.2       2 UNK         0.4993 
     31 O          22.4765   -1.5243   -0.5992 O.2       2 UNK        -0.5286 
     32 CA         23.7287   -3.5573   -0.4898 C.3       2 UNK         0.0209 
     33 CB         22.7013   -4.5961   -0.0104 C.3       2 UNK        -0.1931 
     34 N          24.7626   -4.2357   -1.2753 N.am      2 UNK        -0.4546 
     35 C          25.9051   -3.6660   -1.6827 C.2       1 UNK         0.5154 
     36 O          26.2549   -2.5420   -1.3187 O.2       1 UNK        -0.5181 
     37 C          27.1391    2.1724   -4.4594 C.2       5 UNK         0.5014 
     38 O          28.0461    2.9782   -4.6713 O.2       5 UNK        -0.5248 
     39 N          25.8433    2.4466   -4.6907 N.am      6 UNK        -0.4434 
     40 CA         25.3599    3.6957   -5.2855 C.3       6 UNK         0.0363 
     41 CB         23.8364    3.7866   -5.1046 C.3       6 UNK        -0.1936 
     42 C          25.7342    3.8501   -6.7726 C.2       6 UNK         0.5081 
     43 O          25.8815    4.9808   -7.2374 O.2       6 UNK        -0.5248 
     44 N          25.8764    2.7273   -7.4912 N.am      7 UNK        -0.4718 
     45 CA         26.3152    2.6889   -8.8883 C.3       7 UNK         0.0273 
     46 CB         25.6942    1.4684   -9.5883 C.3       7 UNK        -0.1935 
     47 C          27.8479    2.6550   -8.9998 C.2       7 UNK         0.5018 
     48 O          28.3975    3.2899   -9.9007 O.2       7 UNK        -0.5186 
     49 N          28.4978    1.9230   -8.0820 N.am      8 UNK        -0.4240 
     50 CA         29.9347    1.6620   -7.9911 C.3       8 UNK         0.0235 
     51 CB         30.7261    2.9543   -7.6849 C.3       8 UNK        -0.2000 
     52 C          30.4235    0.8799   -9.2221 C.2       8 UNK         0.4941 
     53 O          30.0586   -0.2883   -9.3630 O.2       8 UNK        -0.5273 
     54 N          31.2470    1.5114  -10.0722 N.am      9 UNK        -0.4262 
     55 CA         31.8424    1.0139  -11.3238 C.3       9 UNK         0.0264 
     56 CB         30.7621    0.6359  -12.3563 C.3       9 UNK        -0.1955 
     57 C          32.8606   -0.1258  -11.1392 C.2       9 UNK         0.5031 
     58 O          33.9703   -0.0300  -11.6646 O.2       9 UNK        -0.5390 
     59 N          32.4972   -1.1555  -10.3636 N.am      10 UNK        -0.4204 
     60 CA         33.3347   -2.3063  -10.0020 C.3       10 UNK         0.0237 
     61 CB         32.4913   -3.3036   -9.1906 C.3       10 UNK        -0.1985 
     62 C          34.6095   -1.9281   -9.2244 C.2       10 UNK         0.4970 
     63 O          35.6020   -2.6533   -9.2978 O.2       10 UNK        -0.4914 
     64 N          34.5575   -0.7951   -8.5153 N.am      11 UNK        -0.4285 
     65 CA         35.6899   -0.1660   -7.8248 C.3       11 UNK         0.1007 
     66 C          36.6599    0.6070   -8.7685 C.2       11 UNK         0.5703 
     67 N          36.3742    0.7636  -10.0571 N.am      11 UNK        -0.7361 
     68 O          37.7076    1.0673   -8.3212 O.2       11 UNK        -0.4986 
     69 C69        35.1959    0.7312   -6.6594 C.3       12 UNK        -0.0947 
     70 S70        34.3995   -0.2336   -5.3328 S.3       12 UNK        -0.2240 
     71 C71        32.6339    0.0346   -5.6746 C.3       12 UNK         0.0194 
     72 H72        23.4824   -6.9365   -4.5436 H         1 UNK         0.0906 
     73 H73        24.5241   -6.5886   -5.9259 H         1 UNK         0.0906 
     74 H74        25.1240   -7.5850   -4.5983 H         1 UNK         0.0906 
     75 H75        26.5112   -6.4655   -3.2621 H         1 UNK         0.3140 
     76 H76        27.5546   -4.9275   -2.0671 H         1 UNK         0.1085 
     77 H77        27.9412   -2.6529   -3.1643 H         1 UNK         0.0836 
     78 H78        26.7569   -3.0596   -4.3379 H         1 UNK         0.0836 
     79 H79        31.1037   -4.5829   -4.1944 H         1 UNK         0.0731 
     80 H80        30.1613   -4.4392   -2.7360 H         1 UNK         0.0731 
     81 H81        31.7178   -2.5347   -5.5338 H         1 UNK         0.1312 
     82 H82        31.6547    1.1964   -3.4114 H         1 UNK         0.1406 
     83 H83        29.7341   -2.2497   -1.7422 H         1 UNK         0.1631 
     84 H84        31.0443    0.8781   -0.8167 H         1 UNK         0.0717 
     85 H85        29.7567   -0.2519   -0.4823 H         1 UNK         0.0717 
     86 H86        27.6927   -0.3607   -2.0904 H         1 UNK         0.0934 
     87 H87        26.6405    1.0151   -1.9573 H         1 UNK         0.0934 
     88 H88        28.4714    0.4987   -4.3634 H         1 UNK         0.0739 
     89 H89        25.9349   -0.6938   -3.8243 H         1 UNK         0.3093 
     90 H90        24.5653   -0.7275   -6.8875 H         1 UNK         0.0818 
     91 H91        26.1081   -3.3268   -6.4088 H         1 UNK         0.0819 
     92 H92        24.6872   -3.1126   -7.4196 H         1 UNK         0.0819 
     93 H93        26.1973   -2.3313   -7.8487 H         1 UNK         0.0819 
     94 H94        24.1660   -2.7275   -4.9123 H         1 UNK         0.3041 
     95 H95        22.0436   -0.6198   -2.8789 H         1 UNK         0.0784 
     96 H96        20.7820   -1.3680   -4.8955 H         1 UNK         0.0793 
     97 H97        21.5564   -2.9465   -4.8164 H         1 UNK         0.0793 
     98 H98        20.4745   -2.4249   -3.5270 H         1 UNK         0.0793 
     99 H99        23.5218   -3.2273   -3.0484 H         1 UNK         0.3024 
    100 H100       24.2067   -3.1133    0.3866 H         1 UNK         0.1171 
    101 H101       23.1716   -5.3692    0.5975 H         1 UNK         0.0786 
    102 H102       21.9306   -4.1281    0.6040 H         1 UNK         0.0786 
    103 H103       22.1992   -5.0836   -0.8472 H         1 UNK         0.0786 
    104 H104       24.5465   -5.1593   -1.6220 H         1 UNK         0.2977 
    105 H105       25.1441    1.7326   -4.5136 H         1 UNK         0.3127 
    106 H106       25.8173    4.5266   -4.7439 H         1 UNK         0.0770 
    107 H107       23.3196    2.9761   -5.6205 H         1 UNK         0.0814 
    108 H108       23.4514    4.7256   -5.5045 H         1 UNK         0.0814 
    109 H109       23.5576    3.7447   -4.0515 H         1 UNK         0.0814 
    110 H110       25.7916    1.8375   -7.0198 H         1 UNK         0.2983 
    111 H111       25.9633    3.5863   -9.4026 H         1 UNK         0.0947 
    112 H112       25.9821    1.4370  -10.6401 H         1 UNK         0.0806 
    113 H113       24.6052    1.5021   -9.5519 H         1 UNK         0.0806 
    114 H114       26.0164    0.5297   -9.1364 H         1 UNK         0.0806 
    115 H115       27.9279    1.3495   -7.4612 H         1 UNK         0.3000 
    116 H116       30.0612    0.9926   -7.1385 H         1 UNK         0.0850 
    117 H117       31.7917    2.7499   -7.5742 H         1 UNK         0.0810 
    118 H118       30.3887    3.3965   -6.7469 H         1 UNK         0.0810 
    119 H119       30.6111    3.7116   -8.4606 H         1 UNK         0.0810 
    120 H120       31.4774    2.4697   -9.8475 H         1 UNK         0.3040 
    121 H121       32.3973    1.8587  -11.7356 H         1 UNK         0.0766 
    122 H122       30.0834    1.4689  -12.5401 H         1 UNK         0.0812 
    123 H123       30.1637   -0.2166  -12.0337 H         1 UNK         0.0812 
    124 H124       31.2148    0.3692  -13.3123 H         1 UNK         0.0812 
    125 H125       31.5580   -1.1155   -9.9679 H         1 UNK         0.3205 
    126 H126       33.6492   -2.7902  -10.9289 H         1 UNK         0.0754 
    127 H127       33.0765   -4.1843   -8.9219 H         1 UNK         0.0769 
    128 H128       31.6297   -3.6507   -9.7614 H         1 UNK         0.0769 
    129 H129       32.1228   -2.8604   -8.2643 H         1 UNK         0.0769 
    130 H130       33.7020   -0.2643   -8.5334 H         1 UNK         0.2981 
    131 H131       36.2940   -0.9640   -7.3885 H         1 UNK         0.0541 
    132 H132       37.0257    1.2633  -10.6408 H         1 UNK         0.3459 
    133 H133       35.5275    0.3852  -10.4669 H         1 UNK         0.3459 
    134 H134       34.5157    1.5038   -7.0224 H         1 UNK         0.0612 
    135 H135       36.0334    1.2589   -6.1992 H         1 UNK         0.0612 
    136 H136       32.3773   -0.3874   -6.6470 H         1 UNK         0.0624 
    137 H137       32.4319    1.1051   -5.7310 H         1 UNK         0.0624 
@<TRIPOS>BOND
     1    1    2 1    
     2    1   72 1    
     3    1   73 1    
     4    1   74 1    
     5    2    3 2    
     6    2    4 am   BACKBONE|DICT|INTERRES
     7    4    5 1    
     8    4   75 1    
     9    5    6 1    
    10    5   35 1    
    11    5   76 1    
    12    6    7 1    
    13    6   77 1    
    14    6   78 1    
    15    7    8 1    
    16    8    9 1    
    17    8   79 1    
    18    8   80 1    
    19    9   10 ar   
    20    9   14 ar   
    21   10   11 ar   
    22   10   81 1    
    23   11   12 ar   
    24   11   71 1    
    25   12   13 ar   
    26   12   82 1    
    27   13   14 ar   
    28   13   15 1    
    29   14   83 1    
    30   15   16 1    
    31   15   84 1    
    32   15   85 1    
    33   16   17 1    
    34   17   18 1    
    35   17   86 1    
    36   17   87 1    
    37   18   19 1    
    38   18   37 1    
    39   18   88 1    
    40   19   20 am   BACKBONE|DICT|INTERRES
    41   19   89 1    
    42   20   21 2    
    43   20   22 1    
    44   22   23 1    
    45   22   24 1    
    46   22   90 1    
    47   23   91 1    
    48   23   92 1    
    49   23   93 1    
    50   24   25 am   BACKBONE|DICT|INTERRES
    51   24   94 1    
    52   25   26 2    
    53   25   27 1    
    54   27   28 1    
    55   27   29 1    
    56   27   95 1    
    57   28   96 1    
    58   28   97 1    
    59   28   98 1    
    60   29   30 am   BACKBONE|DICT|INTERRES
    61   29   99 1    
    62   30   31 2    
    63   30   32 1    
    64   32   33 1    
    65   32   34 1    
    66   32  100 1    
    67   33  101 1    
    68   33  102 1    
    69   33  103 1    
    70   34   35 am   BACKBONE|DICT|INTERRES
    71   34  104 1    
    72   35   36 2    
    73   37   38 2    
    74   37   39 am   BACKBONE|DICT|INTERRES
    75   39   40 1    
    76   39  105 1    
    77   40   41 1    
    78   40   42 1    
    79   40  106 1    
    80   41  107 1    
    81   41  108 1    
    82   41  109 1    
    83   42   43 2    
    84   42   44 am   BACKBONE|DICT|INTERRES
    85   44   45 1    
    86   44  110 1    
    87   45   46 1    
    88   45   47 1    
    89   45  111 1    
    90   46  112 1    
    91   46  113 1    
    92   46  114 1    
    93   47   48 2    
    94   47   49 am   BACKBONE|DICT|INTERRES
    95   49   50 1    
    96   49  115 1    
    97   50   51 1    
    98   50   52 1    
    99   50  116 1    
   100   51  117 1    
   101   51  118 1    
   102   51  119 1    
   103   52   53 2    
   104   52   54 am   BACKBONE|DICT|INTERRES
   105   54   55 1    
   106   54  120 1    
   107   55   56 1    
   108   55   57 1    
   109   55  121 1    
   110   56  122 1    
   111   56  123 1    
   112   56  124 1    
   113   57   58 2    
   114   57   59 am   BACKBONE|DICT|INTERRES
   115   59   60 1    
   116   59  125 1    
   117   60   61 1    
   118   60   62 1    
   119   60  126 1    
   120   61  127 1    
   121   61  128 1    
   122   61  129 1    
   123   62   63 2    
   124   62   64 am   BACKBONE|DICT|INTERRES
   125   64   65 1    
   126   64  130 1    
   127   65   66 1    
   128   65   69 1    
   129   65  131 1    
   130   66   67 am   BACKBONE|DICT|INTERRES
   131   66   68 2    
   132   67  132 1    
   133   67  133 1    
   134   69   70 1    
   135   69  134 1    
   136   69  135 1    
   137   70   71 1    
   138   71  136 1    
   139   71  137 1    
@<TRIPOS>SUBSTRUCTURE
     1 UNK         1 GROUP             0       ****    0 ROOT    
