@<TRIPOS>MOLECULE
3R137
137   139    1
SMALL
USER_CHARGES


@<TRIPOS>ATOM
      1 CA         25.3380   -2.0405   -0.3882 C.3       0 UNK        -0.2020 
      2 C          25.8074   -2.4654   -1.7698 C.2       0 UNK         0.4855 
      3 O          25.7322   -1.6769   -2.7123 O.2       0 UNK        -0.5197 
      4 N          26.2992   -3.7012   -1.9141 N.am      1 UNK        -0.4892 
      5 CA         26.7834   -4.2469   -3.1850 C.3       1 UNK         0.0835 
      6 C6         27.4667   -5.6199   -2.9867 C.3       12 UNK        -0.0855 
      7 S7         28.6440   -5.9956   -4.3278 S.3       12 UNK        -0.2931 
      8 C8         30.2450   -5.7668   -3.4919 C.3       12 UNK         0.0378 
      9 C9         30.6786   -4.3070   -3.4549 C.ar      12 UNK        -0.0802 
     10 C10        31.4193   -3.7803   -4.5167 C.ar      12 UNK        -0.0944 
     11 C11        31.9154   -2.4740   -4.4718 C.ar      12 UNK        -0.0787 
     12 C12        31.6304   -1.6815   -3.3518 C.ar      12 UNK        -0.0862 
     13 C13        30.8852   -2.1906   -2.2826 C.ar      12 UNK        -0.0733 
     14 C14        30.4057   -3.5037   -2.3425 C.ar      12 UNK        -0.0832 
     15 C15        30.6722   -1.3494   -1.0287 C.3       12 UNK         0.0240 
     16 S16        29.0725   -0.4796   -1.0091 S.3       12 UNK        -0.2522 
     17 C17        29.2994    0.7790   -2.3120 C.3       12 UNK        -0.0967 
     18 CA         28.3246    0.5273   -3.4877 C.3       5 UNK         0.0660 
     19 N          26.9126    0.7263   -3.1312 N.am      5 UNK        -0.4015 
     20 C          26.2805    1.8422   -2.7429 C.2       4 UNK         0.4946 
     21 O          26.8205    2.9485   -2.6785 O.2       4 UNK        -0.5353 
     22 CA         24.7881    1.6929   -2.4007 C.3       4 UNK         0.0277 
     23 CB         24.0555    3.0454   -2.2895 C.3       4 UNK        -0.1981 
     24 N          24.1154    0.8399   -3.3839 N.am      4 UNK        -0.4209 
     25 C          23.0811    0.0293   -3.1211 C.2       3 UNK         0.4942 
     26 O          22.5572   -0.0887   -2.0130 O.2       3 UNK        -0.5208 
     27 CA         22.5520   -0.7978   -4.2980 C.3       3 UNK         0.0250 
     28 CB         21.8971    0.1291   -5.3475 C.3       3 UNK        -0.1990 
     29 N          23.6261   -1.6231   -4.8655 N.am      3 UNK        -0.4232 
     30 C          23.4759   -2.5324   -5.8418 C.2       2 UNK         0.4993 
     31 O          22.4007   -2.7764   -6.3904 O.2       2 UNK        -0.5286 
     32 CA         24.7226   -3.3117   -6.3041 C.3       2 UNK         0.0209 
     33 CB         25.3529   -2.6371   -7.5328 C.3       2 UNK        -0.1931 
     34 N          25.7451   -3.4686   -5.2684 N.am      2 UNK        -0.4546 
     35 C          25.6415   -4.3016   -4.2245 C.2       1 UNK         0.5154 
     36 O          24.6847   -5.0583   -4.0411 O.2       1 UNK        -0.5181 
     37 C          28.7498    1.2715   -4.7671 C.2       5 UNK         0.5014 
     38 O          29.2203    0.6281   -5.7027 O.2       5 UNK        -0.5248 
     39 N          28.5296    2.5906   -4.8242 N.am      6 UNK        -0.4434 
     40 CA         28.8368    3.4645   -5.9639 C.3       6 UNK         0.0363 
     41 CB         28.5910    4.9247   -5.5524 C.3       6 UNK        -0.1936 
     42 C          28.0586    3.1274   -7.2522 C.2       6 UNK         0.5081 
     43 O          28.4557    3.5652   -8.3319 O.2       6 UNK        -0.5248 
     44 N          26.9703    2.3577   -7.1184 N.am      7 UNK        -0.4718 
     45 CA         26.1876    1.8042   -8.2225 C.3       7 UNK         0.0273 
     46 CB         24.8229    1.3462   -7.6821 C.3       7 UNK        -0.1935 
     47 C          26.8929    0.6465   -8.9553 C.2       7 UNK         0.5018 
     48 O          26.5319    0.3682  -10.0997 O.2       7 UNK        -0.5186 
     49 N          27.8602   -0.0187   -8.3038 N.am      8 UNK        -0.4240 
     50 CA         28.6662   -1.0782   -8.9093 C.3       8 UNK         0.0235 
     51 CB         29.2266   -1.9956   -7.8089 C.3       8 UNK        -0.2000 
     52 C          29.8044   -0.4411   -9.7141 C.2       8 UNK         0.4941 
     53 O          30.4988    0.4286   -9.1860 O.2       8 UNK        -0.5273 
     54 N          30.0074   -0.8991  -10.9567 N.am      9 UNK        -0.4262 
     55 CA         30.9697   -0.3393  -11.9187 C.3       9 UNK         0.0264 
     56 CB         30.8539   -1.1015  -13.2491 C.3       9 UNK        -0.1955 
     57 C          32.4365   -0.3090  -11.4452 C.2       9 UNK         0.5031 
     58 O          33.2076    0.5223  -11.9265 O.2       9 UNK        -0.5390 
     59 N          32.7914   -1.1999  -10.5110 N.am      10 UNK        -0.4204 
     60 CA         34.1037   -1.2596   -9.8697 C.3       10 UNK         0.0237 
     61 CB         34.2775   -2.6440   -9.2226 C.3       10 UNK        -0.1985 
     62 C          34.3465   -0.1474   -8.8303 C.2       10 UNK         0.4970 
     63 O          35.5124    0.1343   -8.5486 O.2       10 UNK        -0.4914 
     64 N          33.2800    0.4388   -8.2649 N.am      11 UNK        -0.4285 
     65 CA         33.3512    1.4255   -7.1701 C.3       11 UNK         0.1007 
     66 C          32.6207    2.7598   -7.4819 C.2       11 UNK         0.5703 
     67 N          31.6944    2.8150   -8.4287 N.am      11 UNK        -0.7361 
     68 O          32.9174    3.7772   -6.8601 O.2       11 UNK        -0.4986 
     69 C69        32.8650    0.8312   -5.8197 C.3       12 UNK        -0.0947 
     70 S70        33.8824   -0.5798   -5.2683 S.3       12 UNK        -0.2240 
     71 C71        32.7787   -1.9873   -5.6386 C.3       12 UNK         0.0194 
     72 H72        25.4468   -2.8399    0.3442 H         1 UNK         0.0906 
     73 H73        25.9182   -1.1837   -0.0466 H         1 UNK         0.0906 
     74 H74        24.2886   -1.7493   -0.4234 H         1 UNK         0.0906 
     75 H75        26.3096   -4.3308   -1.1244 H         1 UNK         0.3140 
     76 H76        27.5428   -3.5461   -3.5415 H         1 UNK         0.1085 
     77 H77        26.7338   -6.4264   -2.9177 H         1 UNK         0.0836 
     78 H78        28.0036   -5.6383   -2.0374 H         1 UNK         0.0836 
     79 H79        30.2115   -6.1853   -2.4849 H         1 UNK         0.0731 
     80 H80        30.9953   -6.3522   -4.0258 H         1 UNK         0.0731 
     81 H81        31.6385   -4.4054   -5.3719 H         1 UNK         0.1312 
     82 H82        32.0140   -0.6741   -3.2909 H         1 UNK         0.1406 
     83 H83        29.8476   -3.9080   -1.5090 H         1 UNK         0.1631 
     84 H84        31.4790   -0.6238   -0.9131 H         1 UNK         0.0717 
     85 H85        30.7245   -1.9929   -0.1492 H         1 UNK         0.0717 
     86 H86        29.1426    1.7672   -1.8769 H         1 UNK         0.0934 
     87 H87        30.3356    0.7694   -2.6505 H         1 UNK         0.0934 
     88 H88        28.3993   -0.5324   -3.7413 H         1 UNK         0.0739 
     89 H89        26.3812   -0.1443   -3.0732 H         1 UNK         0.3093 
     90 H90        24.7547    1.2042   -1.4243 H         1 UNK         0.0818 
     91 H91        23.0143    2.9103   -1.9967 H         1 UNK         0.0819 
     92 H92        24.5202    3.6837   -1.5369 H         1 UNK         0.0819 
     93 H93        24.0704    3.5882   -3.2352 H         1 UNK         0.0819 
     94 H94        24.4766    0.8757   -4.3257 H         1 UNK         0.3041 
     95 H95        21.7869   -1.4719   -3.9073 H         1 UNK         0.0784 
     96 H96        21.3406   -0.4330   -6.0966 H         1 UNK         0.0793 
     97 H97        21.1854    0.8089   -4.8767 H         1 UNK         0.0793 
     98 H98        22.6318    0.7403   -5.8696 H         1 UNK         0.0793 
     99 H99        24.5152   -1.5794   -4.3764 H         1 UNK         0.3024 
    100 H100       24.3832   -4.3069   -6.6018 H         1 UNK         0.1171 
    101 H101       25.7807   -1.6678   -7.2810 H         1 UNK         0.0786 
    102 H102       24.6124   -2.4737   -8.3173 H         1 UNK         0.0786 
    103 H103       26.1439   -3.2527   -7.9613 H         1 UNK         0.0786 
    104 H104       26.5552   -2.8702   -5.3344 H         1 UNK         0.2977 
    105 H105       28.0570    3.0128   -4.0256 H         1 UNK         0.3127 
    106 H106       29.8975    3.3450   -6.1904 H         1 UNK         0.0770 
    107 H107       27.5478    5.0968   -5.2839 H         1 UNK         0.0814 
    108 H108       28.8366    5.6075   -6.3670 H         1 UNK         0.0814 
    109 H109       29.2087    5.2057   -4.6994 H         1 UNK         0.0814 
    110 H110       26.7196    2.0656   -6.1867 H         1 UNK         0.2983 
    111 H111       26.0192    2.5964   -8.9557 H         1 UNK         0.0947 
    112 H112       24.2058    0.9293   -8.4794 H         1 UNK         0.0806 
    113 H113       24.2690    2.1801   -7.2503 H         1 UNK         0.0806 
    114 H114       24.9275    0.5771   -6.9169 H         1 UNK         0.0806 
    115 H115       28.1815    0.3219   -7.4026 H         1 UNK         0.3000 
    116 H116       28.0375   -1.6784   -9.5708 H         1 UNK         0.0850 
    117 H117       29.8878   -1.4553   -7.1316 H         1 UNK         0.0810 
    118 H118       28.4297   -2.4352   -7.2102 H         1 UNK         0.0810 
    119 H119       29.8012   -2.8173   -8.2378 H         1 UNK         0.0810 
    120 H120       29.4013   -1.6280  -11.3064 H         1 UNK         0.3040 
    121 H121       30.6760    0.6976  -12.0949 H         1 UNK         0.0766 
    122 H122       29.8477   -1.0305  -13.6627 H         1 UNK         0.0812 
    123 H123       31.0968   -2.1583  -13.1315 H         1 UNK         0.0812 
    124 H124       31.5364   -0.6918  -13.9954 H         1 UNK         0.0812 
    125 H125       32.0906   -1.8488  -10.1851 H         1 UNK         0.3205 
    126 H126       34.8672   -1.1503  -10.6431 H         1 UNK         0.0754 
    127 H127       34.2302   -3.4382   -9.9680 H         1 UNK         0.0769 
    128 H128       33.5093   -2.8401   -8.4744 H         1 UNK         0.0769 
    129 H129       35.2454   -2.7265   -8.7257 H         1 UNK         0.0769 
    130 H130       32.3461    0.2164   -8.5935 H         1 UNK         0.2981 
    131 H131       34.3921    1.7208   -7.0264 H         1 UNK         0.0541 
    132 H132       31.3356    1.9620   -8.8522 H         1 UNK         0.3459 
    133 H133       31.2310    3.6891   -8.6154 H         1 UNK         0.3459 
    134 H134       31.8204    0.5269   -5.8905 H         1 UNK         0.0612 
    135 H135       32.9071    1.5851   -5.0316 H         1 UNK         0.0612 
    136 H136       33.4176   -2.8091   -5.9648 H         1 UNK         0.0624 
    137 H137       32.1410   -1.7451   -6.4884 H         1 UNK         0.0624 
@<TRIPOS>BOND
     1    1    2 1    
     2    1   72 1    
     3    1   73 1    
     4    1   74 1    
     5    2    3 2    
     6    2    4 am   BACKBONE|DICT|INTERRES
     7    4    5 1    
     8    4   75 1    
     9    5    6 1    
    10    5   35 1    
    11    5   76 1    
    12    6    7 1    
    13    6   77 1    
    14    6   78 1    
    15    7    8 1    
    16    8    9 1    
    17    8   79 1    
    18    8   80 1    
    19    9   10 ar   
    20    9   14 ar   
    21   10   11 ar   
    22   10   81 1    
    23   11   12 ar   
    24   11   71 1    
    25   12   13 ar   
    26   12   82 1    
    27   13   14 ar   
    28   13   15 1    
    29   14   83 1    
    30   15   16 1    
    31   15   84 1    
    32   15   85 1    
    33   16   17 1    
    34   17   18 1    
    35   17   86 1    
    36   17   87 1    
    37   18   19 1    
    38   18   37 1    
    39   18   88 1    
    40   19   20 am   BACKBONE|DICT|INTERRES
    41   19   89 1    
    42   20   21 2    
    43   20   22 1    
    44   22   23 1    
    45   22   24 1    
    46   22   90 1    
    47   23   91 1    
    48   23   92 1    
    49   23   93 1    
    50   24   25 am   BACKBONE|DICT|INTERRES
    51   24   94 1    
    52   25   26 2    
    53   25   27 1    
    54   27   28 1    
    55   27   29 1    
    56   27   95 1    
    57   28   96 1    
    58   28   97 1    
    59   28   98 1    
    60   29   30 am   BACKBONE|DICT|INTERRES
    61   29   99 1    
    62   30   31 2    
    63   30   32 1    
    64   32   33 1    
    65   32   34 1    
    66   32  100 1    
    67   33  101 1    
    68   33  102 1    
    69   33  103 1    
    70   34   35 am   BACKBONE|DICT|INTERRES
    71   34  104 1    
    72   35   36 2    
    73   37   38 2    
    74   37   39 am   BACKBONE|DICT|INTERRES
    75   39   40 1    
    76   39  105 1    
    77   40   41 1    
    78   40   42 1    
    79   40  106 1    
    80   41  107 1    
    81   41  108 1    
    82   41  109 1    
    83   42   43 2    
    84   42   44 am   BACKBONE|DICT|INTERRES
    85   44   45 1    
    86   44  110 1    
    87   45   46 1    
    88   45   47 1    
    89   45  111 1    
    90   46  112 1    
    91   46  113 1    
    92   46  114 1    
    93   47   48 2    
    94   47   49 am   BACKBONE|DICT|INTERRES
    95   49   50 1    
    96   49  115 1    
    97   50   51 1    
    98   50   52 1    
    99   50  116 1    
   100   51  117 1    
   101   51  118 1    
   102   51  119 1    
   103   52   53 2    
   104   52   54 am   BACKBONE|DICT|INTERRES
   105   54   55 1    
   106   54  120 1    
   107   55   56 1    
   108   55   57 1    
   109   55  121 1    
   110   56  122 1    
   111   56  123 1    
   112   56  124 1    
   113   57   58 2    
   114   57   59 am   BACKBONE|DICT|INTERRES
   115   59   60 1    
   116   59  125 1    
   117   60   61 1    
   118   60   62 1    
   119   60  126 1    
   120   61  127 1    
   121   61  128 1    
   122   61  129 1    
   123   62   63 2    
   124   62   64 am   BACKBONE|DICT|INTERRES
   125   64   65 1    
   126   64  130 1    
   127   65   66 1    
   128   65   69 1    
   129   65  131 1    
   130   66   67 am   BACKBONE|DICT|INTERRES
   131   66   68 2    
   132   67  132 1    
   133   67  133 1    
   134   69   70 1    
   135   69  134 1    
   136   69  135 1    
   137   70   71 1    
   138   71  136 1    
   139   71  137 1    
@<TRIPOS>SUBSTRUCTURE
     1 UNK         1 GROUP             0       ****    0 ROOT    
