@<TRIPOS>MOLECULE
3R137
137   139    1
SMALL
USER_CHARGES


@<TRIPOS>ATOM
      1 CA         26.5134   -6.3913    1.7894 C.3       0 UNK        -0.2020 
      2 C          26.2481   -4.8935    1.8017 C.2       0 UNK         0.4855 
      3 O          25.1993   -4.4609    2.2800 O.2       0 UNK        -0.5197 
      4 N          27.1918   -4.0984    1.2815 N.am      1 UNK        -0.4892 
      5 CA         27.1031   -2.6360    1.1727 C.3       1 UNK         0.0835 
      6 C6         28.4879   -1.9860    0.9094 C.3       12 UNK        -0.0855 
      7 S7         29.4564   -2.7888   -0.4179 S.3       12 UNK        -0.2931 
      8 C8         29.1949   -1.6374   -1.7995 C.3       12 UNK         0.0378 
      9 C9         29.7883   -2.1883   -3.0863 C.ar      12 UNK        -0.0802 
     10 C10        30.9781   -1.6674   -3.6016 C.ar      12 UNK        -0.0944 
     11 C11        31.5256   -2.1792   -4.7825 C.ar      12 UNK        -0.0787 
     12 C12        30.8730   -3.2238   -5.4476 C.ar      12 UNK        -0.0862 
     13 C13        29.6911   -3.7660   -4.9306 C.ar      12 UNK        -0.0733 
     14 C14        29.1493   -3.2345   -3.7561 C.ar      12 UNK        -0.0832 
     15 C15        29.0380   -4.9718   -5.5962 C.3       12 UNK         0.0240 
     16 S16        28.0421   -4.5382   -7.0570 S.3       12 UNK        -0.2522 
     17 C17        26.6565   -3.6096   -6.3139 C.3       12 UNK        -0.0967 
     18 CA         26.3421   -2.2942   -7.0635 C.3       5 UNK         0.0660 
     19 N          25.1113   -1.6700   -6.5809 N.am      5 UNK        -0.4015 
     20 C          24.4008   -0.7671   -7.2723 C.2       4 UNK         0.4946 
     21 O          24.6610   -0.4268   -8.4262 O.2       4 UNK        -0.5353 
     22 CA         23.2184   -0.1063   -6.5422 C.3       4 UNK         0.0277 
     23 CB         21.9430   -0.9483   -6.7060 C.3       4 UNK        -0.1981 
     24 N          23.4813    0.1161   -5.1175 N.am      4 UNK        -0.4209 
     25 C          24.4144    0.9554   -4.6449 C.2       3 UNK         0.4942 
     26 O          25.1068    1.6774   -5.3604 O.2       3 UNK        -0.5208 
     27 CA         24.6489    0.9575   -3.1247 C.3       3 UNK         0.0250 
     28 CB         23.7390    1.9904   -2.4417 C.3       3 UNK        -0.1990 
     29 N          24.4691   -0.3521   -2.4875 N.am      3 UNK        -0.4232 
     30 C          25.1643   -1.4586   -2.7851 C.2       2 UNK         0.4993 
     31 O          26.0187   -1.5124   -3.6729 O.2       2 UNK        -0.5286 
     32 CA         24.8387   -2.7195   -1.9652 C.3       2 UNK         0.0209 
     33 CB         24.7570   -3.9654   -2.8652 C.3       2 UNK        -0.1931 
     34 N          25.8206   -2.9614   -0.9062 N.am      2 UNK        -0.4546 
     35 C          26.0416   -2.1682    0.1530 C.2       1 UNK         0.5154 
     36 O          25.4288   -1.1200    0.3616 O.2       1 UNK        -0.5181 
     37 C          27.5021   -1.2828   -7.0221 C.2       5 UNK         0.5014 
     38 O          28.2158   -1.1624   -8.0157 O.2       5 UNK        -0.5248 
     39 N          27.6302   -0.5291   -5.9189 N.am      6 UNK        -0.4434 
     40 CA         28.6333    0.5304   -5.7529 C.3       6 UNK         0.0363 
     41 CB         28.5111    1.1482   -4.3518 C.3       6 UNK        -0.1936 
     42 C          28.5485    1.6333   -6.8254 C.2       6 UNK         0.5081 
     43 O          29.5834    2.1333   -7.2616 O.2       6 UNK        -0.5248 
     44 N          27.3222    1.9836   -7.2375 N.am      7 UNK        -0.4718 
     45 CA         27.0470    2.9287   -8.3208 C.3       7 UNK         0.0273 
     46 CB         25.5732    3.3598   -8.2499 C.3       7 UNK        -0.1935 
     47 C          27.3750    2.3710   -9.7182 C.2       7 UNK         0.5018 
     48 O          27.7598    3.1467  -10.5943 O.2       7 UNK        -0.5186 
     49 N          27.1931    1.0578   -9.9148 N.am      8 UNK        -0.4240 
     50 CA         27.4562    0.3663  -11.1792 C.3       8 UNK         0.0235 
     51 CB         26.6091   -0.9151  -11.2463 C.3       8 UNK        -0.2000 
     52 C          28.9460    0.0398  -11.3741 C.2       8 UNK         0.4941 
     53 O          29.4474    0.1518  -12.4943 O.2       8 UNK        -0.5273 
     54 N          29.6154   -0.3798  -10.2936 N.am      9 UNK        -0.4262 
     55 CA         31.0351   -0.7277  -10.2484 C.3       9 UNK         0.0264 
     56 CB         31.3101   -1.4712   -8.9293 C.3       9 UNK        -0.1955 
     57 C          31.9580    0.4967  -10.3888 C.2       9 UNK         0.5031 
     58 O          31.5300    1.6372  -10.2012 O.2       9 UNK        -0.5390 
     59 N          33.2335    0.2250  -10.6925 N.am      10 UNK        -0.4204 
     60 CA         34.2912    1.2297  -10.8483 C.3       10 UNK         0.0237 
     61 CB         35.4257    0.6225  -11.6925 C.3       10 UNK        -0.1985 
     62 C          34.8425    1.7804   -9.5165 C.2       10 UNK         0.4970 
     63 O          35.6462    2.7139   -9.5511 O.2       10 UNK        -0.4914 
     64 N          34.4454    1.1886   -8.3820 N.am      11 UNK        -0.4285 
     65 CA         34.8523    1.5918   -7.0289 C.3       11 UNK         0.1007 
     66 C          34.3513    3.0023   -6.5986 C.2       11 UNK         0.5703 
     67 N          34.9553    3.5814   -5.5687 N.am      11 UNK        -0.7361 
     68 O          33.4231    3.5716   -7.1693 O.2       11 UNK        -0.4986 
     69 C69        34.5184    0.4915   -5.9857 C.3       12 UNK        -0.0947 
     70 S70        32.7432    0.0861   -5.8436 S.3       12 UNK        -0.2240 
     71 C71        32.8560   -1.6446   -5.2945 C.3       12 UNK         0.0194 
     72 H72        25.7395   -6.9046    1.2194 H         1 UNK         0.0906 
     73 H73        27.4785   -6.6315    1.3436 H         1 UNK         0.0906 
     74 H74        26.5035   -6.7824    2.8065 H         1 UNK         0.0906 
     75 H75        28.0404   -4.5009    0.9060 H         1 UNK         0.3140 
     76 H76        26.7581   -2.2670    2.1416 H         1 UNK         0.1085 
     77 H77        29.0846   -2.0538    1.8204 H         1 UNK         0.0836 
     78 H78        28.3923   -0.9160    0.7125 H         1 UNK         0.0836 
     79 H79        28.1281   -1.4643   -1.9391 H         1 UNK         0.0731 
     80 H80        29.6371   -0.6710   -1.5521 H         1 UNK         0.0731 
     81 H81        31.4866   -0.8674   -3.0809 H         1 UNK         0.1312 
     82 H82        31.2986   -3.6380   -6.3514 H         1 UNK         0.1406 
     83 H83        28.2404   -3.6483   -3.3417 H         1 UNK         0.1631 
     84 H84        28.4111   -5.5113   -4.8844 H         1 UNK         0.0717 
     85 H85        29.8141   -5.6745   -5.9030 H         1 UNK         0.0717 
     86 H86        25.7818   -4.2615   -6.3301 H         1 UNK         0.0934 
     87 H87        26.8567   -3.4095   -5.2634 H         1 UNK         0.0934 
     88 H88        26.1819   -2.5539   -8.1127 H         1 UNK         0.0739 
     89 H89        24.8795   -1.8325   -5.6110 H         1 UNK         0.3093 
     90 H90        23.0483    0.8673   -7.0074 H         1 UNK         0.0818 
     91 H91        21.0792   -0.4504   -6.2650 H         1 UNK         0.0819 
     92 H92        21.7169   -1.1098   -7.7611 H         1 UNK         0.0819 
     93 H93        22.0404   -1.9297   -6.2401 H         1 UNK         0.0819 
     94 H94        22.9438   -0.4266   -4.4574 H         1 UNK         0.3041 
     95 H95        25.6848    1.2560   -2.9557 H         1 UNK         0.0784 
     96 H96        23.8729    2.9797   -2.8822 H         1 UNK         0.0793 
     97 H97        22.6844    1.7297   -2.5400 H         1 UNK         0.0793 
     98 H98        23.9665    2.0784   -1.3791 H         1 UNK         0.0793 
     99 H99        23.8238   -0.3864   -1.7106 H         1 UNK         0.3024 
    100 H100       23.8622   -2.5838   -1.4949 H         1 UNK         0.1171 
    101 H101       24.0629   -3.8091   -3.6921 H         1 UNK         0.0786 
    102 H102       24.4023   -4.8322   -2.3072 H         1 UNK         0.0786 
    103 H103       25.7257   -4.2212   -3.2946 H         1 UNK         0.0786 
    104 H104       26.3806   -3.7971   -0.9867 H         1 UNK         0.2977 
    105 H105       27.0251   -0.7230   -5.1251 H         1 UNK         0.3127 
    106 H106       29.6128    0.0552   -5.8367 H         1 UNK         0.0770 
    107 H107       27.6108    1.7545   -4.2559 H         1 UNK         0.0814 
    108 H108       29.3627    1.7966   -4.1427 H         1 UNK         0.0814 
    109 H109       28.4834    0.3853   -3.5773 H         1 UNK         0.0814 
    110 H110       26.5193    1.5993   -6.7472 H         1 UNK         0.2983 
    111 H111       27.6696    3.8127   -8.1660 H         1 UNK         0.0947 
    112 H112       25.3376    4.0812   -9.0334 H         1 UNK         0.0806 
    113 H113       25.3440    3.8317   -7.2942 H         1 UNK         0.0806 
    114 H114       24.8995    2.5104   -8.3724 H         1 UNK         0.0806 
    115 H115       26.8786    0.4896   -9.1387 H         1 UNK         0.3000 
    116 H116       27.1480    1.0149  -12.0023 H         1 UNK         0.0850 
    117 H117       26.7663   -1.4383  -12.1904 H         1 UNK         0.0810 
    118 H118       25.5449   -0.6903  -11.1723 H         1 UNK         0.0810 
    119 H119       26.8594   -1.6084  -10.4425 H         1 UNK         0.0810 
    120 H120       29.1026   -0.4856   -9.4187 H         1 UNK         0.3040 
    121 H121       31.2406   -1.4040  -11.0807 H         1 UNK         0.0766 
    122 H122       30.7184   -2.3846   -8.8605 H         1 UNK         0.0812 
    123 H123       31.0553   -0.8534   -8.0674 H         1 UNK         0.0812 
    124 H124       32.3576   -1.7580   -8.8329 H         1 UNK         0.0812 
    125 H125       33.5067   -0.7386  -10.8274 H         1 UNK         0.3205 
    126 H126       33.8797    2.0796  -11.3972 H         1 UNK         0.0754 
    127 H127       36.2130    1.3549  -11.8774 H         1 UNK         0.0769 
    128 H128       35.0631    0.2910  -12.6659 H         1 UNK         0.0769 
    129 H129       35.8868   -0.2320  -11.1954 H         1 UNK         0.0769 
    130 H130       33.7453    0.4655   -8.4319 H         1 UNK         0.2981 
    131 H131       35.9411    1.6683   -7.0612 H         1 UNK         0.0541 
    132 H132       35.7157    3.1287   -5.0861 H         1 UNK         0.3459 
    133 H133       34.6437    4.4920   -5.2690 H         1 UNK         0.3459 
    134 H134       34.8846    0.7731   -4.9971 H         1 UNK         0.0612 
    135 H135       35.0614   -0.4177   -6.2487 H         1 UNK         0.0612 
    136 H136       33.2286   -2.2535   -6.1196 H         1 UNK         0.0624 
    137 H137       33.5940   -1.7200   -4.4944 H         1 UNK         0.0624 
@<TRIPOS>BOND
     1    1    2 1    
     2    1   72 1    
     3    1   73 1    
     4    1   74 1    
     5    2    3 2    
     6    2    4 am   BACKBONE|DICT|INTERRES
     7    4    5 1    
     8    4   75 1    
     9    5    6 1    
    10    5   35 1    
    11    5   76 1    
    12    6    7 1    
    13    6   77 1    
    14    6   78 1    
    15    7    8 1    
    16    8    9 1    
    17    8   79 1    
    18    8   80 1    
    19    9   10 ar   
    20    9   14 ar   
    21   10   11 ar   
    22   10   81 1    
    23   11   12 ar   
    24   11   71 1    
    25   12   13 ar   
    26   12   82 1    
    27   13   14 ar   
    28   13   15 1    
    29   14   83 1    
    30   15   16 1    
    31   15   84 1    
    32   15   85 1    
    33   16   17 1    
    34   17   18 1    
    35   17   86 1    
    36   17   87 1    
    37   18   19 1    
    38   18   37 1    
    39   18   88 1    
    40   19   20 am   BACKBONE|DICT|INTERRES
    41   19   89 1    
    42   20   21 2    
    43   20   22 1    
    44   22   23 1    
    45   22   24 1    
    46   22   90 1    
    47   23   91 1    
    48   23   92 1    
    49   23   93 1    
    50   24   25 am   BACKBONE|DICT|INTERRES
    51   24   94 1    
    52   25   26 2    
    53   25   27 1    
    54   27   28 1    
    55   27   29 1    
    56   27   95 1    
    57   28   96 1    
    58   28   97 1    
    59   28   98 1    
    60   29   30 am   BACKBONE|DICT|INTERRES
    61   29   99 1    
    62   30   31 2    
    63   30   32 1    
    64   32   33 1    
    65   32   34 1    
    66   32  100 1    
    67   33  101 1    
    68   33  102 1    
    69   33  103 1    
    70   34   35 am   BACKBONE|DICT|INTERRES
    71   34  104 1    
    72   35   36 2    
    73   37   38 2    
    74   37   39 am   BACKBONE|DICT|INTERRES
    75   39   40 1    
    76   39  105 1    
    77   40   41 1    
    78   40   42 1    
    79   40  106 1    
    80   41  107 1    
    81   41  108 1    
    82   41  109 1    
    83   42   43 2    
    84   42   44 am   BACKBONE|DICT|INTERRES
    85   44   45 1    
    86   44  110 1    
    87   45   46 1    
    88   45   47 1    
    89   45  111 1    
    90   46  112 1    
    91   46  113 1    
    92   46  114 1    
    93   47   48 2    
    94   47   49 am   BACKBONE|DICT|INTERRES
    95   49   50 1    
    96   49  115 1    
    97   50   51 1    
    98   50   52 1    
    99   50  116 1    
   100   51  117 1    
   101   51  118 1    
   102   51  119 1    
   103   52   53 2    
   104   52   54 am   BACKBONE|DICT|INTERRES
   105   54   55 1    
   106   54  120 1    
   107   55   56 1    
   108   55   57 1    
   109   55  121 1    
   110   56  122 1    
   111   56  123 1    
   112   56  124 1    
   113   57   58 2    
   114   57   59 am   BACKBONE|DICT|INTERRES
   115   59   60 1    
   116   59  125 1    
   117   60   61 1    
   118   60   62 1    
   119   60  126 1    
   120   61  127 1    
   121   61  128 1    
   122   61  129 1    
   123   62   63 2    
   124   62   64 am   BACKBONE|DICT|INTERRES
   125   64   65 1    
   126   64  130 1    
   127   65   66 1    
   128   65   69 1    
   129   65  131 1    
   130   66   67 am   BACKBONE|DICT|INTERRES
   131   66   68 2    
   132   67  132 1    
   133   67  133 1    
   134   69   70 1    
   135   69  134 1    
   136   69  135 1    
   137   70   71 1    
   138   71  136 1    
   139   71  137 1    
@<TRIPOS>SUBSTRUCTURE
     1 UNK         1 GROUP             0       ****    0 ROOT    
