@<TRIPOS>MOLECULE
3R137
137   139    1
SMALL
USER_CHARGES


@<TRIPOS>ATOM
      1 CA         25.7895   -4.7481    2.3120 C.3       0 UNK        -0.2020 
      2 C          26.5048   -3.9400    1.2400 C.2       0 UNK         0.4855 
      3 O          27.0960   -2.9054    1.5465 O.2       0 UNK        -0.5197 
      4 N          26.4417   -4.3949   -0.0181 N.am      1 UNK        -0.4892 
      5 CA         27.0964   -3.7754   -1.1807 C.3       1 UNK         0.0835 
      6 C6         27.5884   -4.8431   -2.1948 C.3       12 UNK        -0.0855 
      7 S7         29.1241   -5.6310   -1.5988 S.3       12 UNK        -0.2931 
      8 C8         30.2595   -5.4350   -3.0233 C.3       12 UNK         0.0378 
      9 C9         30.4979   -4.0006   -3.5064 C.ar      12 UNK        -0.0802 
     10 C10        30.8180   -3.7900   -4.8516 C.ar      12 UNK        -0.0944 
     11 C11        31.0386   -2.5004   -5.3452 C.ar      12 UNK        -0.0787 
     12 C12        30.9322   -1.4063   -4.4844 C.ar      12 UNK        -0.0862 
     13 C13        30.6244   -1.5969   -3.1349 C.ar      12 UNK        -0.0733 
     14 C14        30.4282   -2.8954   -2.6492 C.ar      12 UNK        -0.0832 
     15 C15        30.5157   -0.4077   -2.1917 C.3       12 UNK         0.0240 
     16 S16        28.8090   -0.1890   -1.6001 S.3       12 UNK        -0.2522 
     17 C17        28.1580    1.1924   -2.5967 C.3       12 UNK        -0.0967 
     18 CA         28.2124    1.0397   -4.1407 C.3       5 UNK         0.0660 
     19 N          27.5985   -0.1914   -4.6508 N.am      5 UNK        -0.4015 
     20 C          27.6488   -0.5947   -5.9318 C.2       4 UNK         0.4946 
     21 O          28.3040   -0.0317   -6.8087 O.2       4 UNK        -0.5353 
     22 CA         26.7900   -1.8022   -6.3300 C.3       4 UNK         0.0277 
     23 CB         27.5564   -3.1141   -6.1140 C.3       4 UNK        -0.1981 
     24 N          25.5229   -1.8339   -5.6010 N.am      4 UNK        -0.4209 
     25 C          24.4914   -1.0147   -5.8461 C.2       3 UNK         0.4942 
     26 O          24.4893   -0.1636   -6.7357 O.2       3 UNK        -0.5208 
     27 CA         23.2685   -1.1445   -4.9216 C.3       3 UNK         0.0250 
     28 CB         22.3524   -2.2854   -5.3920 C.3       3 UNK        -0.1990 
     29 N          23.6251   -1.3471   -3.5140 N.am      3 UNK        -0.4232 
     30 C          24.2629   -0.4375   -2.7653 C.2       2 UNK         0.4993 
     31 O          24.6236    0.6628   -3.1835 O.2       2 UNK        -0.5286 
     32 CA         24.5901   -0.8294   -1.3151 C.3       2 UNK         0.0209 
     33 CB         23.3301   -0.7557   -0.4369 C.3       2 UNK        -0.1931 
     34 N          25.2539   -2.1261   -1.1098 N.am      2 UNK        -0.4546 
     35 C          26.2563   -2.6528   -1.8312 C.2       1 UNK         0.5154 
     36 O          26.5638   -2.2561   -2.9538 O.2       1 UNK        -0.5181 
     37 C          27.5872    2.2862   -4.7974 C.2       5 UNK         0.5014 
     38 O          28.3252    3.1551   -5.2620 O.2       5 UNK        -0.5248 
     39 N          26.2460    2.3451   -4.8310 N.am      6 UNK        -0.4434 
     40 CA         25.4684    3.4368   -5.4239 C.3       6 UNK         0.0363 
     41 CB         23.9780    3.2477   -5.0990 C.3       6 UNK        -0.1936 
     42 C          25.6779    3.5727   -6.9400 C.2       6 UNK         0.5081 
     43 O          25.8232    4.6921   -7.4321 O.2       6 UNK        -0.5248 
     44 N          25.7103    2.4366   -7.6497 N.am      7 UNK        -0.4718 
     45 CA         26.0083    2.3752   -9.0831 C.3       7 UNK         0.0273 
     46 CB         25.5631    1.0078   -9.6264 C.3       7 UNK        -0.1935 
     47 C          27.4944    2.6120   -9.4093 C.2       7 UNK         0.5018 
     48 O          27.8015    2.9827  -10.5428 O.2       7 UNK        -0.5186 
     49 N          28.3773    2.3540   -8.4311 N.am      8 UNK        -0.4240 
     50 CA         29.8395    2.2721   -8.5332 C.3       8 UNK         0.0235 
     51 CB         30.4538    3.6571   -8.8220 C.3       8 UNK        -0.2000 
     52 C          30.2690    1.1893   -9.5421 C.2       8 UNK         0.4941 
     53 O          31.1635    1.4269  -10.3562 O.2       8 UNK        -0.5273 
     54 N          29.5857    0.0354   -9.4841 N.am      9 UNK        -0.4262 
     55 CA         29.5924   -1.0605  -10.4612 C.3       9 UNK         0.0264 
     56 CB         28.5275   -2.0910  -10.0433 C.3       9 UNK        -0.1955 
     57 C          30.9756   -1.7100  -10.6560 C.2       9 UNK         0.5031 
     58 O          31.2600   -2.7402  -10.0451 O.2       9 UNK        -0.5390 
     59 N          31.8105   -1.0667  -11.4849 N.am      10 UNK        -0.4204 
     60 CA         33.2456   -1.3128  -11.6817 C.3       10 UNK         0.0237 
     61 CB         33.5066   -2.7177  -12.2676 C.3       10 UNK        -0.1985 
     62 C          34.0782   -1.0198  -10.4141 C.2       10 UNK         0.4970 
     63 O          35.1526   -1.5995  -10.2451 O.2       10 UNK        -0.4914 
     64 N          33.5715   -0.1194   -9.5606 N.am      11 UNK        -0.4285 
     65 CA         34.1631    0.2808   -8.2731 C.3       11 UNK         0.1007 
     66 C          34.4342    1.8097   -8.1797 C.2       11 UNK         0.5703 
     67 N          34.1677    2.6029   -9.2114 N.am      11 UNK        -0.7361 
     68 O          34.9193    2.2873   -7.1569 O.2       11 UNK        -0.4986 
     69 C69        33.3255   -0.2280   -7.0648 C.3       12 UNK        -0.0947 
     70 S70        33.1765   -2.0485   -7.0336 S.3       12 UNK        -0.2240 
     71 C71        31.3869   -2.2946   -6.8105 C.3       12 UNK         0.0194 
     72 H72        25.2998   -5.6306    1.9006 H         1 UNK         0.0906 
     73 H73        26.5009   -5.0780    3.0687 H         1 UNK         0.0906 
     74 H74        25.0317   -4.1365    2.8010 H         1 UNK         0.0906 
     75 H75        25.9316   -5.2463   -0.2099 H         1 UNK         0.3140 
     76 H76        27.9792   -3.2413   -0.8232 H         1 UNK         0.1085 
     77 H77        27.7904   -4.4139   -3.1748 H         1 UNK         0.0836 
     78 H78        26.8276   -5.6073   -2.3610 H         1 UNK         0.0836 
     79 H79        29.8679   -6.0385   -3.8439 H         1 UNK         0.0731 
     80 H80        31.2232   -5.8704   -2.7567 H         1 UNK         0.0731 
     81 H81        30.8951   -4.6355   -5.5216 H         1 UNK         0.1312 
     82 H82        31.0983   -0.4100   -4.8687 H         1 UNK         0.1406 
     83 H83        30.2077   -3.0369   -1.6009 H         1 UNK         0.1631 
     84 H84        30.8737    0.5102   -2.6598 H         1 UNK         0.0717 
     85 H85        31.1626   -0.5816   -1.3308 H         1 UNK         0.0717 
     86 H86        27.1284    1.3490   -2.2699 H         1 UNK         0.0934 
     87 H87        28.7004    2.0906   -2.2943 H         1 UNK         0.0934 
     88 H88        29.2605    1.0194   -4.4409 H         1 UNK         0.0739 
     89 H89        27.1064   -0.7749   -3.9780 H         1 UNK         0.3093 
     90 H90        26.5654   -1.7157   -7.3952 H         1 UNK         0.0818 
     91 H91        28.4419   -3.1537   -6.7480 H         1 UNK         0.0819 
     92 H92        27.8974   -3.2122   -5.0847 H         1 UNK         0.0819 
     93 H93        26.9444   -3.9830   -6.3552 H         1 UNK         0.0819 
     94 H94        25.4965   -2.4125   -4.7703 H         1 UNK         0.3041 
     95 H95        22.7079   -0.2096   -4.9903 H         1 UNK         0.0784 
     96 H96        22.0597   -2.1451   -6.4336 H         1 UNK         0.0793 
     97 H97        22.8437   -3.2565   -5.3194 H         1 UNK         0.0793 
     98 H98        21.4360   -2.3269   -4.8029 H         1 UNK         0.0793 
     99 H99        23.3860   -2.2345   -3.0956 H         1 UNK         0.3024 
    100 H100       25.2906   -0.0753   -0.9499 H         1 UNK         0.1171 
    101 H101       23.5771   -0.8521    0.6206 H         1 UNK         0.0786 
    102 H102       22.8205    0.2011   -0.5608 H         1 UNK         0.0786 
    103 H103       22.6160   -1.5411   -0.6872 H         1 UNK         0.0786 
    104 H104       25.0955   -2.5547   -0.2094 H         1 UNK         0.2977 
    105 H105       25.7100    1.6111   -4.3700 H         1 UNK         0.3127 
    106 H106       25.8017    4.3677   -4.9605 H         1 UNK         0.0770 
    107 H107       23.5946    2.3076   -5.4976 H         1 UNK         0.0814 
    108 H108       23.3788    4.0534   -5.5251 H         1 UNK         0.0814 
    109 H109       23.8042    3.2488   -4.0228 H         1 UNK         0.0814 
    110 H110       25.5069    1.5565   -7.1844 H         1 UNK         0.2983 
    111 H111       25.4325    3.1517   -9.5916 H         1 UNK         0.0947 
    112 H112       26.0881    0.1902   -9.1313 H         1 UNK         0.0806 
    113 H113       25.7612    0.9252  -10.6960 H         1 UNK         0.0806 
    114 H114       24.4938    0.8529   -9.4811 H         1 UNK         0.0806 
    115 H115       28.0014    2.0172   -7.5528 H         1 UNK         0.3000 
    116 H116       30.1983    1.9455   -7.5558 H         1 UNK         0.0850 
    117 H117       30.1190    4.3964   -8.0944 H         1 UNK         0.0810 
    118 H118       30.1905    4.0195   -9.8161 H         1 UNK         0.0810 
    119 H119       31.5418    3.6192   -8.7679 H         1 UNK         0.0810 
    120 H120       28.9455   -0.0670   -8.7016 H         1 UNK         0.3040 
    121 H121       29.2857   -0.6435  -11.4226 H         1 UNK         0.0766 
    122 H122       28.4968   -2.9273  -10.7430 H         1 UNK         0.0812 
    123 H123       27.5311   -1.6501  -10.0238 H         1 UNK         0.0812 
    124 H124       28.7330   -2.5015   -9.0545 H         1 UNK         0.0812 
    125 H125       31.4758   -0.1860  -11.8586 H         1 UNK         0.3205 
    126 H126       33.5734   -0.5848  -12.4250 H         1 UNK         0.0754 
    127 H127       34.5491   -2.8274  -12.5688 H         1 UNK         0.0769 
    128 H128       32.8946   -2.8996  -13.1509 H         1 UNK         0.0769 
    129 H129       33.2957   -3.5056  -11.5440 H         1 UNK         0.0769 
    130 H130       32.7002    0.3400   -9.8052 H         1 UNK         0.2981 
    131 H131       35.1539   -0.1682   -8.1869 H         1 UNK         0.0541 
    132 H132       34.3651    3.5879   -9.1345 H         1 UNK         0.3459 
    133 H133       33.7699    2.2351  -10.0607 H         1 UNK         0.3459 
    134 H134       33.7867    0.0708   -6.1219 H         1 UNK         0.0612 
    135 H135       32.3355    0.2299   -7.0767 H         1 UNK         0.0612 
    136 H136       31.0879   -3.1702   -7.3880 H         1 UNK         0.0624 
    137 H137       30.8213   -1.4591   -7.2244 H         1 UNK         0.0624 
@<TRIPOS>BOND
     1    1    2 1    
     2    1   72 1    
     3    1   73 1    
     4    1   74 1    
     5    2    3 2    
     6    2    4 am   BACKBONE|DICT|INTERRES
     7    4    5 1    
     8    4   75 1    
     9    5    6 1    
    10    5   35 1    
    11    5   76 1    
    12    6    7 1    
    13    6   77 1    
    14    6   78 1    
    15    7    8 1    
    16    8    9 1    
    17    8   79 1    
    18    8   80 1    
    19    9   10 ar   
    20    9   14 ar   
    21   10   11 ar   
    22   10   81 1    
    23   11   12 ar   
    24   11   71 1    
    25   12   13 ar   
    26   12   82 1    
    27   13   14 ar   
    28   13   15 1    
    29   14   83 1    
    30   15   16 1    
    31   15   84 1    
    32   15   85 1    
    33   16   17 1    
    34   17   18 1    
    35   17   86 1    
    36   17   87 1    
    37   18   19 1    
    38   18   37 1    
    39   18   88 1    
    40   19   20 am   BACKBONE|DICT|INTERRES
    41   19   89 1    
    42   20   21 2    
    43   20   22 1    
    44   22   23 1    
    45   22   24 1    
    46   22   90 1    
    47   23   91 1    
    48   23   92 1    
    49   23   93 1    
    50   24   25 am   BACKBONE|DICT|INTERRES
    51   24   94 1    
    52   25   26 2    
    53   25   27 1    
    54   27   28 1    
    55   27   29 1    
    56   27   95 1    
    57   28   96 1    
    58   28   97 1    
    59   28   98 1    
    60   29   30 am   BACKBONE|DICT|INTERRES
    61   29   99 1    
    62   30   31 2    
    63   30   32 1    
    64   32   33 1    
    65   32   34 1    
    66   32  100 1    
    67   33  101 1    
    68   33  102 1    
    69   33  103 1    
    70   34   35 am   BACKBONE|DICT|INTERRES
    71   34  104 1    
    72   35   36 2    
    73   37   38 2    
    74   37   39 am   BACKBONE|DICT|INTERRES
    75   39   40 1    
    76   39  105 1    
    77   40   41 1    
    78   40   42 1    
    79   40  106 1    
    80   41  107 1    
    81   41  108 1    
    82   41  109 1    
    83   42   43 2    
    84   42   44 am   BACKBONE|DICT|INTERRES
    85   44   45 1    
    86   44  110 1    
    87   45   46 1    
    88   45   47 1    
    89   45  111 1    
    90   46  112 1    
    91   46  113 1    
    92   46  114 1    
    93   47   48 2    
    94   47   49 am   BACKBONE|DICT|INTERRES
    95   49   50 1    
    96   49  115 1    
    97   50   51 1    
    98   50   52 1    
    99   50  116 1    
   100   51  117 1    
   101   51  118 1    
   102   51  119 1    
   103   52   53 2    
   104   52   54 am   BACKBONE|DICT|INTERRES
   105   54   55 1    
   106   54  120 1    
   107   55   56 1    
   108   55   57 1    
   109   55  121 1    
   110   56  122 1    
   111   56  123 1    
   112   56  124 1    
   113   57   58 2    
   114   57   59 am   BACKBONE|DICT|INTERRES
   115   59   60 1    
   116   59  125 1    
   117   60   61 1    
   118   60   62 1    
   119   60  126 1    
   120   61  127 1    
   121   61  128 1    
   122   61  129 1    
   123   62   63 2    
   124   62   64 am   BACKBONE|DICT|INTERRES
   125   64   65 1    
   126   64  130 1    
   127   65   66 1    
   128   65   69 1    
   129   65  131 1    
   130   66   67 am   BACKBONE|DICT|INTERRES
   131   66   68 2    
   132   67  132 1    
   133   67  133 1    
   134   69   70 1    
   135   69  134 1    
   136   69  135 1    
   137   70   71 1    
   138   71  136 1    
   139   71  137 1    
@<TRIPOS>SUBSTRUCTURE
     1 UNK         1 GROUP             0       ****    0 ROOT    
