@<TRIPOS>MOLECULE
3R137
137   139    1
SMALL
USER_CHARGES


@<TRIPOS>ATOM
      1 CA         26.1156   -1.2572   -1.5861 C.3       0 UNK        -0.2020 
      2 C          25.9371   -2.4166   -0.6136 C.2       0 UNK         0.4855 
      3 O          25.3906   -2.2201    0.4699 O.2       0 UNK        -0.5197 
      4 N          26.3867   -3.6330   -0.9432 N.am      1 UNK        -0.4892 
      5 CA         26.9951   -4.0384   -2.2173 C.3       1 UNK         0.0835 
      6 C6         27.8576   -5.3138   -2.0533 C.3       12 UNK        -0.0855 
      7 S7         29.1036   -5.1496   -0.7282 S.3       12 UNK        -0.2931 
      8 C8         30.6589   -5.0268   -1.6659 C.3       12 UNK         0.0378 
      9 C9         30.8489   -3.6940   -2.3847 C.ar      12 UNK        -0.0802 
     10 C10        31.2931   -3.6864   -3.7099 C.ar      12 UNK        -0.0944 
     11 C11        31.6019   -2.4832   -4.3489 C.ar      12 UNK        -0.0787 
     12 C12        31.4326   -1.2738   -3.6673 C.ar      12 UNK        -0.0862 
     13 C13        30.9916   -1.2640   -2.3411 C.ar      12 UNK        -0.0733 
     14 C14        30.6933   -2.4769   -1.7081 C.ar      12 UNK        -0.0832 
     15 C15        30.9382    0.0428   -1.5590 C.3       12 UNK         0.0240 
     16 S16        29.3418    0.9015   -1.7154 S.3       12 UNK        -0.2522 
     17 C17        29.5463    1.8836   -3.2448 C.3       12 UNK        -0.0967 
     18 CA         28.5560    1.4528   -4.3517 C.3       5 UNK         0.0660 
     19 N          27.1574    1.4766   -3.8938 N.am      5 UNK        -0.4015 
     20 C          26.1498    0.9157   -4.5706 C.2       4 UNK         0.4946 
     21 O          26.3022    0.3362   -5.6457 O.2       4 UNK        -0.5353 
     22 CA         24.7398    1.0687   -3.9980 C.3       4 UNK         0.0277 
     23 CB         24.0835    2.3724   -4.4864 C.3       4 UNK        -0.1981 
     24 N          23.9580   -0.0815   -4.4376 N.am      4 UNK        -0.4209 
     25 C          22.8991   -0.6005   -3.8110 C.2       3 UNK         0.4942 
     26 O          22.3982   -0.1096   -2.7989 O.2       3 UNK        -0.5208 
     27 CA         22.3142   -1.9069   -4.3770 C.3       3 UNK         0.0250 
     28 CB         21.3745   -1.6332   -5.5685 C.3       3 UNK        -0.1990 
     29 N          23.3288   -2.9263   -4.6888 N.am      3 UNK        -0.4232 
     30 C          24.2379   -2.9436   -5.6737 C.2       2 UNK         0.4993 
     31 O          24.3424   -2.0609   -6.5247 O.2       2 UNK        -0.5286 
     32 CA         25.2326   -4.1205   -5.6577 C.3       2 UNK         0.0209 
     33 CB         26.0089   -4.2542   -6.9816 C.3       2 UNK        -0.1931 
     34 N          26.1838   -3.9945   -4.5460 N.am      2 UNK        -0.4546 
     35 C          25.8902   -4.2713   -3.2683 C.2       1 UNK         0.5154 
     36 O          24.7896   -4.7027   -2.9110 O.2       1 UNK        -0.5181 
     37 C          28.7593    2.2781   -5.6454 C.2       5 UNK         0.5014 
     38 O          29.6305    1.9459   -6.4518 O.2       5 UNK        -0.5248 
     39 N          27.9218    3.3088   -5.8426 N.am      6 UNK        -0.4434 
     40 CA         27.8253    4.0853   -7.0798 C.3       6 UNK         0.0363 
     41 CB         27.0571    5.3888   -6.8104 C.3       6 UNK        -0.1936 
     42 C          27.1622    3.2957   -8.2224 C.2       6 UNK         0.5081 
     43 O          27.5953    3.4228   -9.3662 O.2       6 UNK        -0.5248 
     44 N          26.1575    2.4649   -7.9031 N.am      7 UNK        -0.4718 
     45 CA         25.5133    1.5458   -8.8520 C.3       7 UNK         0.0273 
     46 CB         24.1784    1.0429   -8.2803 C.3       7 UNK        -0.1935 
     47 C          26.4372    0.3750   -9.2318 C.2       7 UNK         0.5018 
     48 O          26.4295   -0.0572  -10.3843 O.2       7 UNK        -0.5186 
     49 N          27.2785   -0.0498   -8.2786 N.am      8 UNK        -0.4240 
     50 CA         28.4191   -0.9482   -8.4738 C.3       8 UNK         0.0235 
     51 CB         28.8792   -1.4753   -7.1019 C.3       8 UNK        -0.2000 
     52 C          29.6036   -0.2926   -9.2182 C.2       8 UNK         0.4941 
     53 O          30.6157   -0.9648   -9.4177 O.2       8 UNK        -0.5273 
     54 N          29.4884    0.9965   -9.5821 N.am      9 UNK        -0.4262 
     55 CA         30.4508    1.8179  -10.3262 C.3       9 UNK         0.0264 
     56 CB         30.5415    1.3362  -11.7897 C.3       9 UNK        -0.1955 
     57 C          31.8280    1.9132   -9.6458 C.2       9 UNK         0.5031 
     58 O          32.8510    1.8804  -10.3336 O.2       9 UNK        -0.5390 
     59 N          31.8359    1.9692   -8.3031 N.am      10 UNK        -0.4204 
     60 CA         33.0206    1.9162   -7.4339 C.3       10 UNK         0.0237 
     61 CB         33.8351    3.2226   -7.5423 C.3       10 UNK        -0.1985 
     62 C          33.8801    0.6513   -7.6556 C.2       10 UNK         0.4970 
     63 O          35.0971    0.6950   -7.4696 O.2       10 UNK        -0.4914 
     64 N          33.2171   -0.4405   -8.0603 N.am      11 UNK        -0.4285 
     65 CA         33.7733   -1.7485   -8.4308 C.3       11 UNK         0.1007 
     66 C          34.4559   -1.7673   -9.8326 C.2       11 UNK         0.5703 
     67 N          34.3436   -0.7267  -10.6520 N.am      11 UNK        -0.7361 
     68 O          35.0801   -2.7595  -10.2019 O.2       11 UNK        -0.4986 
     69 C69        34.6590   -2.4056   -7.3300 C.3       12 UNK        -0.0947 
     70 S70        34.0226   -2.4228   -5.6137 S.3       12 UNK        -0.2240 
     71 C71        32.2056   -2.4928   -5.7426 C.3       12 UNK         0.0194 
     72 H72        27.1683   -1.1003   -1.8157 H         1 UNK         0.0906 
     73 H73        25.5757   -1.4450   -2.5119 H         1 UNK         0.0906 
     74 H74        25.7305   -0.3353   -1.1513 H         1 UNK         0.0906 
     75 H75        26.2509   -4.3873   -0.2857 H         1 UNK         0.3140 
     76 H76        27.6518   -3.2410   -2.5703 H         1 UNK         0.1085 
     77 H77        28.3561   -5.5624   -2.9924 H         1 UNK         0.0836 
     78 H78        27.2301   -6.1737   -1.8090 H         1 UNK         0.0836 
     79 H79        30.7167   -5.8628   -2.3649 H         1 UNK         0.0731 
     80 H80        31.4890   -5.1575   -0.9704 H         1 UNK         0.0731 
     81 H81        31.4542   -4.6211   -4.2299 H         1 UNK         0.1312 
     82 H82        31.6991   -0.3455   -4.1534 H         1 UNK         0.1406 
     83 H83        30.3812   -2.4784   -0.6723 H         1 UNK         0.1631 
     84 H84        31.7504    0.7040   -1.8648 H         1 UNK         0.0717 
     85 H85        31.1103   -0.1607   -0.5010 H         1 UNK         0.0717 
     86 H86        29.4036    2.9355   -2.9900 H         1 UNK         0.0934 
     87 H87        30.5743    1.7993   -3.6018 H         1 UNK         0.0934 
     88 H88        28.7890    0.4164   -4.6043 H         1 UNK         0.0739 
     89 H89        26.9817    1.9301   -3.0084 H         1 UNK         0.3093 
     90 H90        24.7984    1.0760   -2.9082 H         1 UNK         0.0818 
     91 H91        24.6635    3.2453   -4.1849 H         1 UNK         0.0819 
     92 H92        23.9888    2.3974   -5.5720 H         1 UNK         0.0819 
     93 H93        23.0847    2.4913   -4.0660 H         1 UNK         0.0819 
     94 H94        24.3275   -0.5654   -5.2559 H         1 UNK         0.3041 
     95 H95        21.7063   -2.3428   -3.5824 H         1 UNK         0.0784 
     96 H96        20.5580   -0.9734   -5.2725 H         1 UNK         0.0793 
     97 H97        21.8911   -1.1505   -6.3987 H         1 UNK         0.0793 
     98 H98        20.9278   -2.5549   -5.9413 H         1 UNK         0.0793 
     99 H99        23.4141   -3.6662   -3.9976 H         1 UNK         0.3024 
    100 H100       24.6527   -5.0377   -5.5271 H         1 UNK         0.1171 
    101 H101       26.5863   -3.3597   -7.2107 H         1 UNK         0.0786 
    102 H102       26.6938   -5.1018   -6.9592 H         1 UNK         0.0786 
    103 H103       25.3240   -4.4138   -7.8155 H         1 UNK         0.0786 
    104 H104       27.0972   -3.6316   -4.7783 H         1 UNK         0.2977 
    105 H105       27.2600    3.5319   -5.1144 H         1 UNK         0.3127 
    106 H106       28.8370    4.3456   -7.3997 H         1 UNK         0.0770 
    107 H107       26.0374    5.1984   -6.4731 H         1 UNK         0.0814 
    108 H108       26.9924    5.9957   -7.7147 H         1 UNK         0.0814 
    109 H109       27.5552    5.9936   -6.0524 H         1 UNK         0.0814 
    110 H110       25.8942    2.3687   -6.9341 H         1 UNK         0.2983 
    111 H111       25.2974    2.1001   -9.7683 H         1 UNK         0.0947 
    112 H112       23.6831    0.3719   -8.9833 H         1 UNK         0.0806 
    113 H113       23.4939    1.8677   -8.0830 H         1 UNK         0.0806 
    114 H114       24.3150    0.4894   -7.3526 H         1 UNK         0.0806 
    115 H115       27.1166    0.2795   -7.3295 H         1 UNK         0.3000 
    116 H116       28.0785   -1.7944   -9.0738 H         1 UNK         0.0850 
    117 H117       29.4587   -0.7300   -6.5585 H         1 UNK         0.0810 
    118 H118       29.5141   -2.3538   -7.2203 H         1 UNK         0.0810 
    119 H119       28.0397   -1.7610   -6.4693 H         1 UNK         0.0810 
    120 H120       28.6304    1.4757   -9.3399 H         1 UNK         0.3040 
    121 H121       30.0502    2.8322  -10.3362 H         1 UNK         0.0766 
    122 H122       30.9853    0.3423  -11.8600 H         1 UNK         0.0812 
    123 H123       29.5569    1.2979  -12.2557 H         1 UNK         0.0812 
    124 H124       31.1558    2.0103  -12.3879 H         1 UNK         0.0812 
    125 H125       30.9429    1.9669   -7.8102 H         1 UNK         0.3205 
    126 H126       32.6420    1.8459   -6.4130 H         1 UNK         0.0754 
    127 H127       34.6368    3.2477   -6.8032 H         1 UNK         0.0769 
    128 H128       33.2073    4.0962   -7.3665 H         1 UNK         0.0769 
    129 H129       34.2951    3.3319   -8.5250 H         1 UNK         0.0769 
    130 H130       32.2300   -0.3487   -8.2713 H         1 UNK         0.2981 
    131 H131       32.9008   -2.3899   -8.5553 H         1 UNK         0.0541 
    132 H132       34.7846   -0.7675  -11.5564 H         1 UNK         0.3459 
    133 H133       33.8255    0.1031  -10.3836 H         1 UNK         0.3459 
    134 H134       34.8584   -3.4446   -7.5976 H         1 UNK         0.0612 
    135 H135       35.6363   -1.9213   -7.3019 H         1 UNK         0.0612 
    136 H136       31.8176   -1.6404   -6.2957 H         1 UNK         0.0624 
    137 H137       31.9097   -3.3892   -6.2897 H         1 UNK         0.0624 
@<TRIPOS>BOND
     1    1    2 1    
     2    1   72 1    
     3    1   73 1    
     4    1   74 1    
     5    2    3 2    
     6    2    4 am   BACKBONE|DICT|INTERRES
     7    4    5 1    
     8    4   75 1    
     9    5    6 1    
    10    5   35 1    
    11    5   76 1    
    12    6    7 1    
    13    6   77 1    
    14    6   78 1    
    15    7    8 1    
    16    8    9 1    
    17    8   79 1    
    18    8   80 1    
    19    9   10 ar   
    20    9   14 ar   
    21   10   11 ar   
    22   10   81 1    
    23   11   12 ar   
    24   11   71 1    
    25   12   13 ar   
    26   12   82 1    
    27   13   14 ar   
    28   13   15 1    
    29   14   83 1    
    30   15   16 1    
    31   15   84 1    
    32   15   85 1    
    33   16   17 1    
    34   17   18 1    
    35   17   86 1    
    36   17   87 1    
    37   18   19 1    
    38   18   37 1    
    39   18   88 1    
    40   19   20 am   BACKBONE|DICT|INTERRES
    41   19   89 1    
    42   20   21 2    
    43   20   22 1    
    44   22   23 1    
    45   22   24 1    
    46   22   90 1    
    47   23   91 1    
    48   23   92 1    
    49   23   93 1    
    50   24   25 am   BACKBONE|DICT|INTERRES
    51   24   94 1    
    52   25   26 2    
    53   25   27 1    
    54   27   28 1    
    55   27   29 1    
    56   27   95 1    
    57   28   96 1    
    58   28   97 1    
    59   28   98 1    
    60   29   30 am   BACKBONE|DICT|INTERRES
    61   29   99 1    
    62   30   31 2    
    63   30   32 1    
    64   32   33 1    
    65   32   34 1    
    66   32  100 1    
    67   33  101 1    
    68   33  102 1    
    69   33  103 1    
    70   34   35 am   BACKBONE|DICT|INTERRES
    71   34  104 1    
    72   35   36 2    
    73   37   38 2    
    74   37   39 am   BACKBONE|DICT|INTERRES
    75   39   40 1    
    76   39  105 1    
    77   40   41 1    
    78   40   42 1    
    79   40  106 1    
    80   41  107 1    
    81   41  108 1    
    82   41  109 1    
    83   42   43 2    
    84   42   44 am   BACKBONE|DICT|INTERRES
    85   44   45 1    
    86   44  110 1    
    87   45   46 1    
    88   45   47 1    
    89   45  111 1    
    90   46  112 1    
    91   46  113 1    
    92   46  114 1    
    93   47   48 2    
    94   47   49 am   BACKBONE|DICT|INTERRES
    95   49   50 1    
    96   49  115 1    
    97   50   51 1    
    98   50   52 1    
    99   50  116 1    
   100   51  117 1    
   101   51  118 1    
   102   51  119 1    
   103   52   53 2    
   104   52   54 am   BACKBONE|DICT|INTERRES
   105   54   55 1    
   106   54  120 1    
   107   55   56 1    
   108   55   57 1    
   109   55  121 1    
   110   56  122 1    
   111   56  123 1    
   112   56  124 1    
   113   57   58 2    
   114   57   59 am   BACKBONE|DICT|INTERRES
   115   59   60 1    
   116   59  125 1    
   117   60   61 1    
   118   60   62 1    
   119   60  126 1    
   120   61  127 1    
   121   61  128 1    
   122   61  129 1    
   123   62   63 2    
   124   62   64 am   BACKBONE|DICT|INTERRES
   125   64   65 1    
   126   64  130 1    
   127   65   66 1    
   128   65   69 1    
   129   65  131 1    
   130   66   67 am   BACKBONE|DICT|INTERRES
   131   66   68 2    
   132   67  132 1    
   133   67  133 1    
   134   69   70 1    
   135   69  134 1    
   136   69  135 1    
   137   70   71 1    
   138   71  136 1    
   139   71  137 1    
@<TRIPOS>SUBSTRUCTURE
     1 UNK         1 GROUP             0       ****    0 ROOT    
