@<TRIPOS>MOLECULE
3R137
137   139    1
SMALL
USER_CHARGES


@<TRIPOS>ATOM
      1 CA         29.0887   -7.8232   -2.2643 C.3       0 UNK        -0.2020 
      2 C          27.9768   -6.8351   -1.9455 C.2       0 UNK         0.4855 
      3 O          26.9978   -7.2037   -1.2965 O.2       0 UNK        -0.5197 
      4 N          28.1245   -5.5817   -2.3925 N.am      1 UNK        -0.4892 
      5 CA         27.1420   -4.5020   -2.2352 C.3       1 UNK         0.0835 
      6 C6         27.7565   -3.1075   -2.5303 C.3       12 UNK        -0.0855 
      7 S7         28.7102   -3.0340   -4.0934 S.3       12 UNK        -0.2931 
      8 C8         30.4015   -2.7245   -3.4912 C.3       12 UNK         0.0378 
      9 C9         30.7021   -1.2345   -3.4374 C.ar      12 UNK        -0.0802 
     10 C10        31.3277   -0.6132   -4.5217 C.ar      12 UNK        -0.0944 
     11 C11        31.6022    0.7572   -4.4957 C.ar      12 UNK        -0.0787 
     12 C12        31.2436    1.5081   -3.3748 C.ar      12 UNK        -0.0862 
     13 C13        30.5824    0.9058   -2.2999 C.ar      12 UNK        -0.0733 
     14 C14        30.3362   -0.4708   -2.3244 C.ar      12 UNK        -0.0832 
     15 C15        30.0618    1.7584   -1.1523 C.3       12 UNK         0.0240 
     16 S16        28.2750    2.0955   -1.3330 S.3       12 UNK        -0.2522 
     17 C17        28.2035    2.9108   -2.9668 C.3       12 UNK        -0.0967 
     18 CA         27.8350    1.8997   -4.0906 C.3       5 UNK         0.0660 
     19 N          26.4390    1.4544   -4.0190 N.am      5 UNK        -0.4015 
     20 C          25.3289    2.1420   -4.3145 C.2       4 UNK         0.4946 
     21 O          25.3278    3.2470   -4.8612 O.2       4 UNK        -0.5353 
     22 CA         23.9906    1.4819   -3.9192 C.3       4 UNK         0.0277 
     23 CB         22.8218    2.4854   -3.9430 C.3       4 UNK        -0.1981 
     24 N          23.6287    0.3246   -4.7433 N.am      4 UNK        -0.4209 
     25 C          24.2645   -0.8526   -4.7682 C.2       3 UNK         0.4942 
     26 O          25.2871   -1.0930   -4.1200 O.2       3 UNK        -0.5208 
     27 CA         23.6421   -1.9492   -5.6432 C.3       3 UNK         0.0250 
     28 CB         23.5718   -1.5577   -7.1325 C.3       3 UNK        -0.1990 
     29 N          24.4289   -3.1658   -5.4716 N.am      3 UNK        -0.4232 
     30 C          23.9911   -4.4187   -5.6253 C.2       2 UNK         0.4993 
     31 O          22.8662   -4.7040   -6.0388 O.2       2 UNK        -0.5286 
     32 CA         24.9622   -5.5556   -5.2510 C.3       2 UNK         0.0209 
     33 CB         25.5994   -6.1511   -6.5175 C.3       2 UNK        -0.1931 
     34 N          26.0311   -5.1767   -4.3179 N.am      2 UNK        -0.4546 
     35 C          25.8591   -4.7602   -3.0540 C.2       1 UNK         0.5154 
     36 O          24.7565   -4.6118   -2.5250 O.2       1 UNK        -0.5181 
     37 C          28.2269    2.3835   -5.4993 C.2       5 UNK         0.5014 
     38 O          28.6222    1.5646   -6.3304 O.2       5 UNK        -0.5248 
     39 N          28.0794    3.6879   -5.7703 N.am      6 UNK        -0.4434 
     40 CA         28.2911    4.2980   -7.0870 C.3       6 UNK         0.0363 
     41 CB         28.1442    5.8230   -6.9693 C.3       6 UNK        -0.1936 
     42 C          27.3522    3.7468   -8.1778 C.2       6 UNK         0.5081 
     43 O          27.7217    3.7651   -9.3513 O.2       6 UNK        -0.5248 
     44 N          26.1774    3.2377   -7.7762 N.am      7 UNK        -0.4718 
     45 CA         25.2513    2.5161   -8.6522 C.3       7 UNK         0.0273 
     46 CB         23.8764    2.4241   -7.9733 C.3       7 UNK        -0.1935 
     47 C          25.7549    1.1130   -9.0434 C.2       7 UNK         0.5018 
     48 O          25.3574    0.6145  -10.0967 O.2       7 UNK        -0.5186 
     49 N          26.6056    0.5008   -8.2049 N.am      8 UNK        -0.4240 
     50 CA         27.2654   -0.7752   -8.4898 C.3       8 UNK         0.0235 
     51 CB         27.5582   -1.5307   -7.1799 C.3       8 UNK        -0.2000 
     52 C          28.5614   -0.5461   -9.2770 C.2       8 UNK         0.4941 
     53 O          28.7950   -1.2348  -10.2696 O.2       8 UNK        -0.5273 
     54 N          29.3825    0.4055   -8.8024 N.am      9 UNK        -0.4262 
     55 CA         30.6763    0.8391   -9.3526 C.3       9 UNK         0.0264 
     56 CB         30.5002    1.4510  -10.7576 C.3       9 UNK        -0.1955 
     57 C          31.7856   -0.2354   -9.3235 C.2       9 UNK         0.5031 
     58 O          32.8513   -0.0206   -9.9037 O.2       9 UNK        -0.5390 
     59 N          31.5488   -1.3493   -8.6141 N.am      10 UNK        -0.4204 
     60 CA         32.4389   -2.5117   -8.5022 C.3       10 UNK         0.0237 
     61 CB         31.7054   -3.6249   -7.7349 C.3       10 UNK        -0.1985 
     62 C          33.8047   -2.2194   -7.8529 C.2       10 UNK         0.4970 
     63 O          34.7520   -2.9730   -8.0787 O.2       10 UNK        -0.4914 
     64 N          33.8800   -1.1377   -7.0699 N.am      11 UNK        -0.4285 
     65 CA         35.1047   -0.6104   -6.4600 C.3       11 UNK         0.1007 
     66 C          36.0588    0.1240   -7.4500 C.2       11 UNK         0.5703 
     67 N          35.6572    0.4039   -8.6863 N.am      11 UNK        -0.7361 
     68 O          37.1933    0.4306   -7.0912 O.2       11 UNK        -0.4986 
     69 C69        34.7793    0.2210   -5.1886 C.3       12 UNK        -0.0947 
     70 S70        33.9840    1.8435   -5.4829 S.3       12 UNK        -0.2240 
     71 C71        32.2208    1.4430   -5.7032 C.3       12 UNK         0.0194 
     72 H72        29.8949   -7.3615   -2.8342 H         1 UNK         0.0906 
     73 H73        29.5112   -8.2228   -1.3427 H         1 UNK         0.0906 
     74 H74        28.6949   -8.6552   -2.8475 H         1 UNK         0.0906 
     75 H75        28.9457   -5.3341   -2.9268 H         1 UNK         0.3140 
     76 H76        26.8329   -4.5009   -1.1871 H         1 UNK         0.1085 
     77 H77        26.9850   -2.3362   -2.5513 H         1 UNK         0.0836 
     78 H78        28.4052   -2.8302   -1.6994 H         1 UNK         0.0836 
     79 H79        30.5547   -3.1821   -2.5128 H         1 UNK         0.0731 
     80 H80        31.1043   -3.2194   -4.1631 H         1 UNK         0.0731 
     81 H81        31.5856   -1.1997   -5.3908 H         1 UNK         0.1312 
     82 H82        31.4367    2.5720   -3.3642 H         1 UNK         0.1406 
     83 H83        29.8222   -0.9358   -1.4949 H         1 UNK         0.1631 
     84 H84        30.6047    2.7032   -1.0945 H         1 UNK         0.0717 
     85 H85        30.2347    1.2465   -0.2046 H         1 UNK         0.0717 
     86 H86        27.4711    3.7181   -2.9141 H         1 UNK         0.0934 
     87 H87        29.1629    3.3944   -3.1563 H         1 UNK         0.0934 
     88 H88        28.4205    0.9928   -3.9403 H         1 UNK         0.0739 
     89 H89        26.3032    0.4963   -3.7072 H         1 UNK         0.3093 
     90 H90        24.1016    1.1357   -2.8891 H         1 UNK         0.0818 
     91 H91        21.9048    2.0385   -3.5586 H         1 UNK         0.0819 
     92 H92        23.0406    3.3540   -3.3203 H         1 UNK         0.0819 
     93 H93        22.6215    2.8514   -4.9509 H         1 UNK         0.0819 
     94 H94        22.7980    0.4293   -5.3074 H         1 UNK         0.3041 
     95 H95        22.6317   -2.1282   -5.2693 H         1 UNK         0.0784 
     96 H96        22.9694   -0.6621   -7.2855 H         1 UNK         0.0793 
     97 H97        24.5577   -1.3627   -7.5488 H         1 UNK         0.0793 
     98 H98        23.1163   -2.3499   -7.7268 H         1 UNK         0.0793 
     99 H99        25.3374   -3.0106   -5.0508 H         1 UNK         0.3024 
    100 H100       24.3660   -6.3325   -4.7670 H         1 UNK         0.1171 
    101 H101       24.8347   -6.4741   -7.2255 H         1 UNK         0.0786 
    102 H102       26.2096   -7.0237   -6.2835 H         1 UNK         0.0786 
    103 H103       26.2316   -5.4245   -7.0298 H         1 UNK         0.0786 
    104 H104       26.9795   -5.2543   -4.6571 H         1 UNK         0.2977 
    105 H105       27.6696    4.2787   -5.0606 H         1 UNK         0.3127 
    106 H106       29.3143    4.0725   -7.3953 H         1 UNK         0.0770 
    107 H107       27.1435    6.1076   -6.6414 H         1 UNK         0.0814 
    108 H108       28.3220    6.3068   -7.9308 H         1 UNK         0.0814 
    109 H109       28.8623    6.2385   -6.2621 H         1 UNK         0.0814 
    110 H110       25.9337    3.2941   -6.7910 H         1 UNK         0.2983 
    111 H111       25.1373    3.0904   -9.5745 H         1 UNK         0.0947 
    112 H112       23.1504    1.9366   -8.6256 H         1 UNK         0.0806 
    113 H113       23.4843    3.4123   -7.7320 H         1 UNK         0.0806 
    114 H114       23.9241    1.8481   -7.0509 H         1 UNK         0.0806 
    115 H115       26.9392    1.0077   -7.3942 H         1 UNK         0.3000 
    116 H116       26.6044   -1.3984   -9.0963 H         1 UNK         0.0850 
    117 H117       27.9880   -2.5120   -7.3852 H         1 UNK         0.0810 
    118 H118       28.2625   -1.0000   -6.5390 H         1 UNK         0.0810 
    119 H119       26.6543   -1.6949   -6.5975 H         1 UNK         0.0810 
    120 H120       29.1008    0.8762   -7.9421 H         1 UNK         0.3040 
    121 H121       31.0196    1.6387   -8.6950 H         1 UNK         0.0766 
    122 H122       29.7345    2.2271  -10.7576 H         1 UNK         0.0812 
    123 H123       30.2170    0.6997  -11.4953 H         1 UNK         0.0812 
    124 H124       31.4261    1.9117  -11.1041 H         1 UNK         0.0812 
    125 H125       30.6383   -1.4376   -8.1883 H         1 UNK         0.3205 
    126 H126       32.6376   -2.8673   -9.5153 H         1 UNK         0.0754 
    127 H127       32.3263   -4.5183   -7.6525 H         1 UNK         0.0769 
    128 H128       30.7870   -3.9191   -8.2437 H         1 UNK         0.0769 
    129 H129       31.4432   -3.3166   -6.7223 H         1 UNK         0.0769 
    130 H130       33.0615   -0.5613   -6.9715 H         1 UNK         0.2981 
    131 H131       35.6737   -1.4762   -6.1157 H         1 UNK         0.0541 
    132 H132       36.2920    0.8734   -9.3119 H         1 UNK         0.3459 
    133 H133       34.7251    0.1651   -9.0042 H         1 UNK         0.3459 
    134 H134       35.7033    0.4150   -4.6414 H         1 UNK         0.0612 
    135 H135       34.1662   -0.3645   -4.5030 H         1 UNK         0.0612 
    136 H136       32.0894    0.8376   -6.5965 H         1 UNK         0.0624 
    137 H137       31.6801    2.3704   -5.8993 H         1 UNK         0.0624 
@<TRIPOS>BOND
     1    1    2 1    
     2    1   72 1    
     3    1   73 1    
     4    1   74 1    
     5    2    3 2    
     6    2    4 am   BACKBONE|DICT|INTERRES
     7    4    5 1    
     8    4   75 1    
     9    5    6 1    
    10    5   35 1    
    11    5   76 1    
    12    6    7 1    
    13    6   77 1    
    14    6   78 1    
    15    7    8 1    
    16    8    9 1    
    17    8   79 1    
    18    8   80 1    
    19    9   10 ar   
    20    9   14 ar   
    21   10   11 ar   
    22   10   81 1    
    23   11   12 ar   
    24   11   71 1    
    25   12   13 ar   
    26   12   82 1    
    27   13   14 ar   
    28   13   15 1    
    29   14   83 1    
    30   15   16 1    
    31   15   84 1    
    32   15   85 1    
    33   16   17 1    
    34   17   18 1    
    35   17   86 1    
    36   17   87 1    
    37   18   19 1    
    38   18   37 1    
    39   18   88 1    
    40   19   20 am   BACKBONE|DICT|INTERRES
    41   19   89 1    
    42   20   21 2    
    43   20   22 1    
    44   22   23 1    
    45   22   24 1    
    46   22   90 1    
    47   23   91 1    
    48   23   92 1    
    49   23   93 1    
    50   24   25 am   BACKBONE|DICT|INTERRES
    51   24   94 1    
    52   25   26 2    
    53   25   27 1    
    54   27   28 1    
    55   27   29 1    
    56   27   95 1    
    57   28   96 1    
    58   28   97 1    
    59   28   98 1    
    60   29   30 am   BACKBONE|DICT|INTERRES
    61   29   99 1    
    62   30   31 2    
    63   30   32 1    
    64   32   33 1    
    65   32   34 1    
    66   32  100 1    
    67   33  101 1    
    68   33  102 1    
    69   33  103 1    
    70   34   35 am   BACKBONE|DICT|INTERRES
    71   34  104 1    
    72   35   36 2    
    73   37   38 2    
    74   37   39 am   BACKBONE|DICT|INTERRES
    75   39   40 1    
    76   39  105 1    
    77   40   41 1    
    78   40   42 1    
    79   40  106 1    
    80   41  107 1    
    81   41  108 1    
    82   41  109 1    
    83   42   43 2    
    84   42   44 am   BACKBONE|DICT|INTERRES
    85   44   45 1    
    86   44  110 1    
    87   45   46 1    
    88   45   47 1    
    89   45  111 1    
    90   46  112 1    
    91   46  113 1    
    92   46  114 1    
    93   47   48 2    
    94   47   49 am   BACKBONE|DICT|INTERRES
    95   49   50 1    
    96   49  115 1    
    97   50   51 1    
    98   50   52 1    
    99   50  116 1    
   100   51  117 1    
   101   51  118 1    
   102   51  119 1    
   103   52   53 2    
   104   52   54 am   BACKBONE|DICT|INTERRES
   105   54   55 1    
   106   54  120 1    
   107   55   56 1    
   108   55   57 1    
   109   55  121 1    
   110   56  122 1    
   111   56  123 1    
   112   56  124 1    
   113   57   58 2    
   114   57   59 am   BACKBONE|DICT|INTERRES
   115   59   60 1    
   116   59  125 1    
   117   60   61 1    
   118   60   62 1    
   119   60  126 1    
   120   61  127 1    
   121   61  128 1    
   122   61  129 1    
   123   62   63 2    
   124   62   64 am   BACKBONE|DICT|INTERRES
   125   64   65 1    
   126   64  130 1    
   127   65   66 1    
   128   65   69 1    
   129   65  131 1    
   130   66   67 am   BACKBONE|DICT|INTERRES
   131   66   68 2    
   132   67  132 1    
   133   67  133 1    
   134   69   70 1    
   135   69  134 1    
   136   69  135 1    
   137   70   71 1    
   138   71  136 1    
   139   71  137 1    
@<TRIPOS>SUBSTRUCTURE
     1 UNK         1 GROUP             0       ****    0 ROOT    
