@<TRIPOS>MOLECULE
3R137
137   139    1
SMALL
USER_CHARGES


@<TRIPOS>ATOM
      1 CA         23.3095   -1.0351   -0.5315 C.3       0 UNK        -0.2020 
      2 C          24.8174   -0.9436   -0.7081 C.2       0 UNK         0.4855 
      3 O          25.3417    0.1373   -0.9804 O.2       0 UNK        -0.5197 
      4 N          25.5190   -2.0735   -0.5480 N.am      1 UNK        -0.4892 
      5 CA         26.9787   -2.1660   -0.6508 C.3       1 UNK         0.0835 
      6 C6         27.5094   -3.5036   -0.0767 C.3       12 UNK        -0.0855 
      7 S7         29.2394   -3.3593    0.4934 S.3       12 UNK        -0.2931 
      8 C8         29.9792   -4.9184   -0.0877 C.3       12 UNK         0.0378 
      9 C9         30.2112   -4.9458   -1.5937 C.ar      12 UNK        -0.0802 
     10 C10        31.2907   -4.2544   -2.1551 C.ar      12 UNK        -0.0944 
     11 C11        31.5545   -4.3392   -3.5267 C.ar      12 UNK        -0.0787 
     12 C12        30.7339   -5.1369   -4.3307 C.ar      12 UNK        -0.0862 
     13 C13        29.6257   -5.7990   -3.7929 C.ar      12 UNK        -0.0733 
     14 C14        29.3762   -5.7046   -2.4203 C.ar      12 UNK        -0.0832 
     15 C15        28.6967   -6.6254   -4.6806 C.3       12 UNK         0.0240 
     16 S16        28.2528   -5.8008   -6.2502 S.3       12 UNK        -0.2522 
     17 C17        27.6768   -4.1750   -5.6578 C.3       12 UNK        -0.0967 
     18 CA         26.5503   -3.5590   -6.5222 C.3       5 UNK         0.0660 
     19 N          25.8662   -2.4931   -5.7893 N.am      5 UNK        -0.4015 
     20 C          24.7558   -1.8558   -6.1839 C.2       4 UNK         0.4946 
     21 O          24.1648   -2.0794   -7.2402 O.2       4 UNK        -0.5353 
     22 CA         24.2200   -0.7731   -5.2364 C.3       4 UNK         0.0277 
     23 CB         23.4033   -1.4018   -4.0981 C.3       4 UNK        -0.1981 
     24 N          25.3045    0.0446   -4.6879 N.am      4 UNK        -0.4209 
     25 C          25.9151    1.0127   -5.3846 C.2       3 UNK         0.4942 
     26 O          25.5599    1.3683   -6.5075 O.2       3 UNK        -0.5208 
     27 CA         27.1406    1.6872   -4.7478 C.3       3 UNK         0.0250 
     28 CB         26.7134    2.8852   -3.8869 C.3       3 UNK        -0.1990 
     29 N          27.9597    0.7737   -3.9490 N.am      3 UNK        -0.4232 
     30 C          28.6395   -0.2687   -4.4471 C.2       2 UNK         0.4993 
     31 O          28.6420   -0.5829   -5.6365 O.2       2 UNK        -0.5286 
     32 CA         29.4203   -1.1251   -3.4410 C.3       2 UNK         0.0209 
     33 CB         30.7619   -0.4596   -3.0949 C.3       2 UNK        -0.1931 
     34 N          28.6962   -1.3933   -2.1986 N.am      2 UNK        -0.4546 
     35 C          27.4732   -1.9275   -2.0920 C.2       1 UNK         0.5154 
     36 O          26.7606   -2.2270   -3.0556 O.2       1 UNK        -0.5181 
     37 C          27.0670   -3.0926   -7.9008 C.2       5 UNK         0.5014 
     38 O          26.7825   -3.7436   -8.9080 O.2       5 UNK        -0.5248 
     39 N          27.8095   -1.9775   -7.9233 N.am      6 UNK        -0.4434 
     40 CA         28.4667   -1.4472   -9.1209 C.3       6 UNK         0.0363 
     41 CB         29.8142   -0.8444   -8.7051 C.3       6 UNK        -0.1936 
     42 C          27.6274   -0.4080   -9.8851 C.2       6 UNK         0.5081 
     43 O          28.0834    0.0541  -10.9308 O.2       6 UNK        -0.5248 
     44 N          26.4412   -0.0572   -9.3645 N.am      7 UNK        -0.4718 
     45 CA         25.4960    0.9406   -9.8829 C.3       7 UNK         0.0273 
     46 CB         24.9453    0.5275  -11.2646 C.3       7 UNK        -0.1935 
     47 C          26.1005    2.3573   -9.8792 C.2       7 UNK         0.5018 
     48 O          26.5112    2.8696  -10.9222 O.2       7 UNK        -0.5186 
     49 N          26.1691    2.9463   -8.6791 N.am      8 UNK        -0.4240 
     50 CA         26.6631    4.2828   -8.3182 C.3       8 UNK         0.0235 
     51 CB         25.9300    5.3991   -9.0873 C.3       8 UNK        -0.2000 
     52 C          28.1885    4.4486   -8.4110 C.2       8 UNK         0.4941 
     53 O          28.7733    5.0743   -7.5254 O.2       8 UNK        -0.5273 
     54 N          28.8275    3.8629   -9.4313 N.am      9 UNK        -0.4262 
     55 CA         30.2812    3.8427   -9.6385 C.3       9 UNK         0.0264 
     56 CB         30.5598    3.5454  -11.1238 C.3       9 UNK        -0.1955 
     57 C          30.9829    2.8437   -8.6931 C.2       9 UNK         0.5031 
     58 O          31.6624    1.9325   -9.1676 O.2       9 UNK        -0.5390 
     59 N          30.7552    3.0301   -7.3839 N.am      10 UNK        -0.4204 
     60 CA         31.0318    2.1655   -6.2293 C.3       10 UNK         0.0237 
     61 CB         30.8903    3.0088   -4.9485 C.3       10 UNK        -0.1985 
     62 C          32.3578    1.3808   -6.2584 C.2       10 UNK         0.4970 
     63 O          33.3355    1.7951   -5.6329 O.2       10 UNK        -0.4914 
     64 N          32.3383    0.2529   -6.9783 N.am      11 UNK        -0.4285 
     65 CA         33.4398   -0.6994   -7.1868 C.3       11 UNK         0.1007 
     66 C          34.7228   -0.0676   -7.8042 C.2       11 UNK         0.5703 
     67 N          34.5879    0.9596   -8.6364 N.am      11 UNK        -0.7361 
     68 O          35.8388   -0.5198   -7.5577 O.2       11 UNK        -0.4986 
     69 C69        33.6842   -1.6011   -5.9438 C.3       12 UNK        -0.0947 
     70 S70        32.1814   -2.5571   -5.5511 S.3       12 UNK        -0.2240 
     71 C71        32.7226   -3.5752   -4.1426 C.3       12 UNK         0.0194 
     72 H72        22.8092   -0.2451   -1.0906 H         1 UNK         0.0906 
     73 H73        22.9251   -1.9929   -0.8818 H         1 UNK         0.0906 
     74 H74        23.0477   -0.9208    0.5200 H         1 UNK         0.0906 
     75 H75        25.0322   -2.9390   -0.3632 H         1 UNK         0.3140 
     76 H76        27.3687   -1.3533   -0.0327 H         1 UNK         0.1085 
     77 H77        27.3998   -4.3152   -0.7980 H         1 UNK         0.0836 
     78 H78        26.9207   -3.7990    0.7935 H         1 UNK         0.0836 
     79 H79        29.3513   -5.7543    0.2252 H         1 UNK         0.0731 
     80 H80        30.9352   -5.0574    0.4193 H         1 UNK         0.0731 
     81 H81        31.9301   -3.6582   -1.5183 H         1 UNK         0.1312 
     82 H82        30.9411   -5.2149   -5.3892 H         1 UNK         0.1406 
     83 H83        28.5379   -6.2363   -1.9909 H         1 UNK         0.1631 
     84 H84        27.7741   -6.8659   -4.1500 H         1 UNK         0.0717 
     85 H85        29.1800   -7.5765   -4.9073 H         1 UNK         0.0717 
     86 H86        27.3150   -4.3095   -4.6371 H         1 UNK         0.0934 
     87 H87        28.5322   -3.5011   -5.5829 H         1 UNK         0.0934 
     88 H88        25.8016   -4.3337   -6.7015 H         1 UNK         0.0739 
     89 H89        26.2501   -2.2657   -4.8750 H         1 UNK         0.3093 
     90 H90        23.5496   -0.1294   -5.8108 H         1 UNK         0.0818 
     91 H91        22.5900   -2.0120   -4.4933 H         1 UNK         0.0819 
     92 H92        24.0147   -2.0455   -3.4649 H         1 UNK         0.0819 
     93 H93        22.9528   -0.6333   -3.4712 H         1 UNK         0.0819 
     94 H94        25.6674   -0.2122   -3.7791 H         1 UNK         0.3041 
     95 H95        27.7627    2.0609   -5.5642 H         1 UNK         0.0784 
     96 H96        26.1182    3.5910   -4.4683 H         1 UNK         0.0793 
     97 H97        26.1098    2.5740   -3.0330 H         1 UNK         0.0793 
     98 H98        27.5780    3.4299   -3.5071 H         1 UNK         0.0793 
     99 H99        27.9939    0.9387   -2.9531 H         1 UNK         0.3024 
    100 H100       29.6208   -2.0867   -3.9172 H         1 UNK         0.1171 
    101 H101       31.3914   -1.1251   -2.5042 H         1 UNK         0.0786 
    102 H102       31.3211   -0.2087   -3.9955 H         1 UNK         0.0786 
    103 H103       30.6255    0.4625   -2.5291 H         1 UNK         0.0786 
    104 H104       29.2095   -1.2248   -1.3448 H         1 UNK         0.2977 
    105 H105       28.0119   -1.4917   -7.0482 H         1 UNK         0.3127 
    106 H106       28.6709   -2.2661   -9.8142 H         1 UNK         0.0770 
    107 H107       30.4148   -1.5688   -8.1546 H         1 UNK         0.0814 
    108 H108       30.3914   -0.5331   -9.5772 H         1 UNK         0.0814 
    109 H109       29.6680    0.0342   -8.0778 H         1 UNK         0.0814 
    110 H110       26.1760   -0.4914   -8.4908 H         1 UNK         0.2983 
    111 H111       24.6510    0.9519   -9.1919 H         1 UNK         0.0947 
    112 H112       24.1846    1.2319  -11.6031 H         1 UNK         0.0806 
    113 H113       24.4818   -0.4583  -11.2269 H         1 UNK         0.0806 
    114 H114       25.7225    0.5032  -12.0289 H         1 UNK         0.0806 
    115 H115       25.8673    2.3827   -7.8815 H         1 UNK         0.3000 
    116 H116       26.4093    4.3998   -7.2631 H         1 UNK         0.0850 
    117 H117       26.2245    6.3818   -8.7168 H         1 UNK         0.0810 
    118 H118       24.8495    5.3188   -8.9686 H         1 UNK         0.0810 
    119 H119       26.1536    5.3781  -10.1543 H         1 UNK         0.0810 
    120 H120       28.2575    3.3670  -10.1108 H         1 UNK         0.3040 
    121 H121       30.6808    4.8343   -9.4159 H         1 UNK         0.0766 
    122 H122       30.0987    4.2912  -11.7715 H         1 UNK         0.0812 
    123 H123       30.1776    2.5657  -11.4150 H         1 UNK         0.0812 
    124 H124       31.6306    3.5544  -11.3316 H         1 UNK         0.0812 
    125 H125       30.1766    3.8407   -7.1758 H         1 UNK         0.3205 
    126 H126       30.2319    1.4272   -6.2110 H         1 UNK         0.0754 
    127 H127       31.0729    2.4081   -4.0572 H         1 UNK         0.0769 
    128 H128       29.8875    3.4260   -4.8546 H         1 UNK         0.0769 
    129 H129       31.5996    3.8372   -4.9337 H         1 UNK         0.0769 
    130 H130       31.5054    0.0561   -7.5120 H         1 UNK         0.2981 
    131 H131       33.0889   -1.3612   -7.9795 H         1 UNK         0.0541 
    132 H132       33.6640    1.3198   -8.8494 H         1 UNK         0.3459 
    133 H133       35.4054    1.3755   -9.0528 H         1 UNK         0.3459 
    134 H134       34.4945   -2.3088   -6.1266 H         1 UNK         0.0612 
    135 H135       33.9727   -1.0026   -5.0784 H         1 UNK         0.0612 
    136 H136       33.1943   -2.9286   -3.4011 H         1 UNK         0.0624 
    137 H137       33.4820   -4.2826   -4.4777 H         1 UNK         0.0624 
@<TRIPOS>BOND
     1    1    2 1    
     2    1   72 1    
     3    1   73 1    
     4    1   74 1    
     5    2    3 2    
     6    2    4 am   BACKBONE|DICT|INTERRES
     7    4    5 1    
     8    4   75 1    
     9    5    6 1    
    10    5   35 1    
    11    5   76 1    
    12    6    7 1    
    13    6   77 1    
    14    6   78 1    
    15    7    8 1    
    16    8    9 1    
    17    8   79 1    
    18    8   80 1    
    19    9   10 ar   
    20    9   14 ar   
    21   10   11 ar   
    22   10   81 1    
    23   11   12 ar   
    24   11   71 1    
    25   12   13 ar   
    26   12   82 1    
    27   13   14 ar   
    28   13   15 1    
    29   14   83 1    
    30   15   16 1    
    31   15   84 1    
    32   15   85 1    
    33   16   17 1    
    34   17   18 1    
    35   17   86 1    
    36   17   87 1    
    37   18   19 1    
    38   18   37 1    
    39   18   88 1    
    40   19   20 am   BACKBONE|DICT|INTERRES
    41   19   89 1    
    42   20   21 2    
    43   20   22 1    
    44   22   23 1    
    45   22   24 1    
    46   22   90 1    
    47   23   91 1    
    48   23   92 1    
    49   23   93 1    
    50   24   25 am   BACKBONE|DICT|INTERRES
    51   24   94 1    
    52   25   26 2    
    53   25   27 1    
    54   27   28 1    
    55   27   29 1    
    56   27   95 1    
    57   28   96 1    
    58   28   97 1    
    59   28   98 1    
    60   29   30 am   BACKBONE|DICT|INTERRES
    61   29   99 1    
    62   30   31 2    
    63   30   32 1    
    64   32   33 1    
    65   32   34 1    
    66   32  100 1    
    67   33  101 1    
    68   33  102 1    
    69   33  103 1    
    70   34   35 am   BACKBONE|DICT|INTERRES
    71   34  104 1    
    72   35   36 2    
    73   37   38 2    
    74   37   39 am   BACKBONE|DICT|INTERRES
    75   39   40 1    
    76   39  105 1    
    77   40   41 1    
    78   40   42 1    
    79   40  106 1    
    80   41  107 1    
    81   41  108 1    
    82   41  109 1    
    83   42   43 2    
    84   42   44 am   BACKBONE|DICT|INTERRES
    85   44   45 1    
    86   44  110 1    
    87   45   46 1    
    88   45   47 1    
    89   45  111 1    
    90   46  112 1    
    91   46  113 1    
    92   46  114 1    
    93   47   48 2    
    94   47   49 am   BACKBONE|DICT|INTERRES
    95   49   50 1    
    96   49  115 1    
    97   50   51 1    
    98   50   52 1    
    99   50  116 1    
   100   51  117 1    
   101   51  118 1    
   102   51  119 1    
   103   52   53 2    
   104   52   54 am   BACKBONE|DICT|INTERRES
   105   54   55 1    
   106   54  120 1    
   107   55   56 1    
   108   55   57 1    
   109   55  121 1    
   110   56  122 1    
   111   56  123 1    
   112   56  124 1    
   113   57   58 2    
   114   57   59 am   BACKBONE|DICT|INTERRES
   115   59   60 1    
   116   59  125 1    
   117   60   61 1    
   118   60   62 1    
   119   60  126 1    
   120   61  127 1    
   121   61  128 1    
   122   61  129 1    
   123   62   63 2    
   124   62   64 am   BACKBONE|DICT|INTERRES
   125   64   65 1    
   126   64  130 1    
   127   65   66 1    
   128   65   69 1    
   129   65  131 1    
   130   66   67 am   BACKBONE|DICT|INTERRES
   131   66   68 2    
   132   67  132 1    
   133   67  133 1    
   134   69   70 1    
   135   69  134 1    
   136   69  135 1    
   137   70   71 1    
   138   71  136 1    
   139   71  137 1    
@<TRIPOS>SUBSTRUCTURE
     1 UNK         1 GROUP             0       ****    0 ROOT    
