@<TRIPOS>MOLECULE
3R137
137   139    1
SMALL
USER_CHARGES


@<TRIPOS>ATOM
      1 CA         29.6099   -3.1375    2.8865 C.3       0 UNK        -0.2020 
      2 C          29.0930   -2.8400    1.4869 C.2       0 UNK         0.4855 
      3 O          29.1631   -1.6953    1.0384 O.2       0 UNK        -0.5197 
      4 N          28.5853   -3.8631    0.7896 N.am      1 UNK        -0.4892 
      5 CA         28.0019   -3.7503   -0.5514 C.3       1 UNK         0.0835 
      6 C6         27.8858   -5.1320   -1.2478 C.3       12 UNK        -0.0855 
      7 S7         29.4064   -6.1523   -1.3058 S.3       12 UNK        -0.2931 
      8 C8         30.7613   -4.9690   -1.6416 C.3       12 UNK         0.0378 
      9 C9         30.5805   -4.1283   -2.9041 C.ar      12 UNK        -0.0802 
     10 C10        31.0641   -2.8145   -2.9225 C.ar      12 UNK        -0.0944 
     11 C11        30.9098   -2.0119   -4.0565 C.ar      12 UNK        -0.0787 
     12 C12        30.2441   -2.5298   -5.1701 C.ar      12 UNK        -0.0862 
     13 C13        29.7768   -3.8447   -5.1795 C.ar      12 UNK        -0.0733 
     14 C14        29.9607   -4.6446   -4.0494 C.ar      12 UNK        -0.0832 
     15 C15        29.0824   -4.3955   -6.4170 C.3       12 UNK         0.0240 
     16 S16        27.3225   -4.7763   -6.1375 S.3       12 UNK        -0.2522 
     17 C17        26.6531   -3.2064   -5.4962 C.3       12 UNK        -0.0967 
     18 CA         26.2794   -2.1914   -6.6114 C.3       5 UNK         0.0660 
     19 N          25.0120   -1.5178   -6.3269 N.am      5 UNK        -0.4015 
     20 C          24.3015   -0.8050   -7.2113 C.2       4 UNK         0.4946 
     21 O          24.6004   -0.6883   -8.3995 O.2       4 UNK        -0.5353 
     22 CA         23.0654   -0.0694   -6.6641 C.3       4 UNK         0.0277 
     23 CB         21.8273   -0.9785   -6.7193 C.3       4 UNK        -0.1981 
     24 N          23.2567    0.4191   -5.2939 N.am      4 UNK        -0.4209 
     25 C          24.1177    1.3907   -4.9575 C.2       3 UNK         0.4942 
     26 O          24.7989    2.0095   -5.7726 O.2       3 UNK        -0.5208 
     27 CA         24.2846    1.6899   -3.4582 C.3       3 UNK         0.0250 
     28 CB         23.2098    2.6805   -2.9829 C.3       3 UNK        -0.1990 
     29 N          24.2682    0.4954   -2.6048 N.am      3 UNK        -0.4232 
     30 C          25.1352   -0.5226   -2.6926 C.2       2 UNK         0.4993 
     31 O          26.0159   -0.6082   -3.5531 O.2       2 UNK        -0.5286 
     32 CA         24.9633   -1.6605   -1.6841 C.3       2 UNK         0.0209 
     33 CB         23.8650   -2.6375   -2.1450 C.3       2 UNK        -0.1931 
     34 N          26.2368   -2.3654   -1.5539 N.am      2 UNK        -0.4546 
     35 C          26.6142   -3.0764   -0.4862 C.2       1 UNK         0.5154 
     36 O          25.8977   -3.2431    0.5056 O.2       1 UNK        -0.5181 
     37 C          27.3933   -1.1515   -6.8387 C.2       5 UNK         0.5014 
     38 O          28.1164   -1.2355   -7.8311 O.2       5 UNK        -0.5248 
     39 N          27.4817   -0.1668   -5.9327 N.am      6 UNK        -0.4434 
     40 CA         28.4313    0.9475   -5.9796 C.3       6 UNK         0.0363 
     41 CB         28.3293    1.7516   -4.6737 C.3       6 UNK        -0.1936 
     42 C          28.2525    1.8740   -7.1942 C.2       6 UNK         0.5081 
     43 O          29.2296    2.4785   -7.6309 O.2       6 UNK        -0.5248 
     44 N          27.0227    1.9772   -7.7142 N.am      7 UNK        -0.4718 
     45 CA         26.7077    2.6897   -8.9527 C.3       7 UNK         0.0273 
     46 CB         25.2029    3.0014   -8.9899 C.3       7 UNK        -0.1935 
     47 C          27.1258    1.9075  -10.2106 C.2       7 UNK         0.5018 
     48 O          27.4742    2.5315  -11.2138 O.2       7 UNK        -0.5186 
     49 N          27.0604    0.5699  -10.1497 N.am      8 UNK        -0.4240 
     50 CA         27.4169   -0.3277  -11.2491 C.3       8 UNK         0.0235 
     51 CB         26.6939   -1.6735  -11.0697 C.3       8 UNK        -0.2000 
     52 C          28.9355   -0.5323  -11.3626 C.2       8 UNK         0.4941 
     53 O          29.4765   -0.4484  -12.4666 O.2       8 UNK        -0.5273 
     54 N          29.5900   -0.8131  -10.2293 N.am      9 UNK        -0.4262 
     55 CA         31.0367   -1.0091  -10.1258 C.3       9 UNK         0.0264 
     56 CB         31.3258   -1.8249   -8.8567 C.3       9 UNK        -0.1955 
     57 C          31.7934    0.3285  -10.0820 C.2       9 UNK         0.5031 
     58 O          31.2024    1.3737   -9.8083 O.2       9 UNK        -0.5390 
     59 N          33.1140    0.2710  -10.2910 N.am      10 UNK        -0.4204 
     60 CA         34.0279    1.4167  -10.2133 C.3       10 UNK         0.0237 
     61 CB         35.2311    1.1552  -11.1402 C.3       10 UNK        -0.1985 
     62 C          34.4532    1.7374   -8.7625 C.2       10 UNK         0.4970 
     63 O          35.6416    1.9402   -8.5047 O.2       10 UNK        -0.4914 
     64 N          33.4877    1.7603   -7.8361 N.am      11 UNK        -0.4285 
     65 CA         33.6900    2.1061   -6.4209 C.3       11 UNK         0.1007 
     66 C          33.8923    3.6319   -6.2126 C.2       11 UNK         0.5703 
     67 N          34.5725    4.0237   -5.1434 N.am      11 UNK        -0.7361 
     68 O          33.4180    4.4628   -6.9859 O.2       11 UNK        -0.4986 
     69 C69        32.5412    1.5660   -5.5295 C.3       12 UNK        -0.0947 
     70 S70        32.4679   -0.2538   -5.5464 S.3       12 UNK        -0.2240 
     71 C71        31.4420   -0.5832   -4.0757 C.3       12 UNK         0.0194 
     72 H72        29.0604   -2.5501    3.6216 H         1 UNK         0.0906 
     73 H73        29.5034   -4.1907    3.1457 H         1 UNK         0.0906 
     74 H74        30.6651   -2.8756    2.9604 H         1 UNK         0.0906 
     75 H75        28.5339   -4.7806    1.2088 H         1 UNK         0.3140 
     76 H76        28.6504   -3.1067   -1.1487 H         1 UNK         0.1085 
     77 H77        27.5427   -4.9999   -2.2762 H         1 UNK         0.0836 
     78 H78        27.1193   -5.7366   -0.7582 H         1 UNK         0.0836 
     79 H79        30.8876   -4.3256   -0.7700 H         1 UNK         0.0731 
     80 H80        31.6907   -5.5316   -1.7374 H         1 UNK         0.0731 
     81 H81        31.5620   -2.4145   -2.0494 H         1 UNK         0.1312 
     82 H82        30.1028   -1.9066   -6.0396 H         1 UNK         0.1406 
     83 H83        29.6005   -5.6643   -4.0610 H         1 UNK         0.1631 
     84 H84        29.5921   -5.3058   -6.7355 H         1 UNK         0.0717 
     85 H85        29.1617   -3.6981   -7.2515 H         1 UNK         0.0717 
     86 H86        25.7610   -3.4883   -4.9353 H         1 UNK         0.0934 
     87 H87        27.3226   -2.7817   -4.7462 H         1 UNK         0.0934 
     88 H88        26.1414   -2.7318   -7.5508 H         1 UNK         0.0739 
     89 H89        24.7240   -1.5007   -5.3601 H         1 UNK         0.3093 
     90 H90        22.8849    0.7940   -7.3084 H         1 UNK         0.0818 
     91 H91        20.9286   -0.4441   -6.4107 H         1 UNK         0.0819 
     92 H92        21.6546   -1.3387   -7.7346 H         1 UNK         0.0819 
     93 H93        21.9358   -1.8538   -6.0775 H         1 UNK         0.0819 
     94 H94        22.7209   -0.0265   -4.5633 H         1 UNK         0.3041 
     95 H95        25.2597    2.1643   -3.3305 H         1 UNK         0.0784 
     96 H96        23.2167    3.5852   -3.5928 H         1 UNK         0.0793 
     97 H97        22.2079    2.2536   -3.0446 H         1 UNK         0.0793 
     98 H98        23.3815    2.9880   -1.9512 H         1 UNK         0.0793 
     99 H99        23.5663    0.4742   -1.8784 H         1 UNK         0.3024 
    100 H100       24.6916   -1.2266   -0.7187 H         1 UNK         0.1171 
    101 H101       22.9067   -2.1298   -2.2609 H         1 UNK         0.0786 
    102 H102       23.7163   -3.4375   -1.4194 H         1 UNK         0.0786 
    103 H103       24.1096   -3.0993   -3.1019 H         1 UNK         0.0786 
    104 H104       26.8756   -2.2086   -2.3238 H         1 UNK         0.2977 
    105 H105       26.8700   -0.2052   -5.1184 H         1 UNK         0.3127 
    106 H106       29.4313    0.5179   -6.0516 H         1 UNK         0.0770 
    107 H107       27.3685    2.2603   -4.5929 H         1 UNK         0.0814 
    108 H108       29.1073    2.5145   -4.6257 H         1 UNK         0.0814 
    109 H109       28.4413    1.1132   -3.7973 H         1 UNK         0.0814 
    110 H110       26.2485    1.5536   -7.2146 H         1 UNK         0.2983 
    111 H111       27.2521    3.6368   -8.9561 H         1 UNK         0.0947 
    112 H112       24.9402    3.5534   -9.8933 H         1 UNK         0.0806 
    113 H113       24.9039    3.6122   -8.1377 H         1 UNK         0.0806 
    114 H114       24.6019    2.0914   -8.9757 H         1 UNK         0.0806 
    115 H115       26.7656    0.1375   -9.2836 H         1 UNK         0.3000 
    116 H116       27.0695    0.1148  -12.1854 H         1 UNK         0.0850 
    117 H117       26.9259   -2.3535  -11.8904 H         1 UNK         0.0810 
    118 H118       25.6118   -1.5410  -11.0532 H         1 UNK         0.0810 
    119 H119       26.9808   -2.1704  -10.1424 H         1 UNK         0.0810 
    120 H120       29.0620   -0.8561   -9.3591 H         1 UNK         0.3040 
    121 H121       31.3800   -1.5749  -10.9946 H         1 UNK         0.0766 
    122 H122       32.3886   -2.0461   -8.7529 H         1 UNK         0.0812 
    123 H123       30.7960   -2.7771   -8.8658 H         1 UNK         0.0812 
    124 H124       31.0192   -1.2765   -7.9673 H         1 UNK         0.0812 
    125 H125       33.5388   -0.6289  -10.4656 H         1 UNK         0.3205 
    126 H126       33.5139    2.3037  -10.5902 H         1 UNK         0.0754 
    127 H127       35.9010    2.0158  -11.1666 H         1 UNK         0.0769 
    128 H128       34.9092    0.9699  -12.1653 H         1 UNK         0.0769 
    129 H129       35.8159    0.2954  -10.8107 H         1 UNK         0.0769 
    130 H130       32.5289    1.6424   -8.1412 H         1 UNK         0.2981 
    131 H131       34.6127    1.6198   -6.0971 H         1 UNK         0.0541 
    132 H132       34.9604    3.3542   -4.4971 H         1 UNK         0.3459 
    133 H133       34.7060    5.0099   -4.9828 H         1 UNK         0.3459 
    134 H134       31.5782    1.9621   -5.8569 H         1 UNK         0.0612 
    135 H135       32.6748    1.8869   -4.4946 H         1 UNK         0.0612 
    136 H136       32.0374   -0.3782   -3.1848 H         1 UNK         0.0624 
    137 H137       30.6003    0.1063   -4.0504 H         1 UNK         0.0624 
@<TRIPOS>BOND
     1    1    2 1    
     2    1   72 1    
     3    1   73 1    
     4    1   74 1    
     5    2    3 2    
     6    2    4 am   BACKBONE|DICT|INTERRES
     7    4    5 1    
     8    4   75 1    
     9    5    6 1    
    10    5   35 1    
    11    5   76 1    
    12    6    7 1    
    13    6   77 1    
    14    6   78 1    
    15    7    8 1    
    16    8    9 1    
    17    8   79 1    
    18    8   80 1    
    19    9   10 ar   
    20    9   14 ar   
    21   10   11 ar   
    22   10   81 1    
    23   11   12 ar   
    24   11   71 1    
    25   12   13 ar   
    26   12   82 1    
    27   13   14 ar   
    28   13   15 1    
    29   14   83 1    
    30   15   16 1    
    31   15   84 1    
    32   15   85 1    
    33   16   17 1    
    34   17   18 1    
    35   17   86 1    
    36   17   87 1    
    37   18   19 1    
    38   18   37 1    
    39   18   88 1    
    40   19   20 am   BACKBONE|DICT|INTERRES
    41   19   89 1    
    42   20   21 2    
    43   20   22 1    
    44   22   23 1    
    45   22   24 1    
    46   22   90 1    
    47   23   91 1    
    48   23   92 1    
    49   23   93 1    
    50   24   25 am   BACKBONE|DICT|INTERRES
    51   24   94 1    
    52   25   26 2    
    53   25   27 1    
    54   27   28 1    
    55   27   29 1    
    56   27   95 1    
    57   28   96 1    
    58   28   97 1    
    59   28   98 1    
    60   29   30 am   BACKBONE|DICT|INTERRES
    61   29   99 1    
    62   30   31 2    
    63   30   32 1    
    64   32   33 1    
    65   32   34 1    
    66   32  100 1    
    67   33  101 1    
    68   33  102 1    
    69   33  103 1    
    70   34   35 am   BACKBONE|DICT|INTERRES
    71   34  104 1    
    72   35   36 2    
    73   37   38 2    
    74   37   39 am   BACKBONE|DICT|INTERRES
    75   39   40 1    
    76   39  105 1    
    77   40   41 1    
    78   40   42 1    
    79   40  106 1    
    80   41  107 1    
    81   41  108 1    
    82   41  109 1    
    83   42   43 2    
    84   42   44 am   BACKBONE|DICT|INTERRES
    85   44   45 1    
    86   44  110 1    
    87   45   46 1    
    88   45   47 1    
    89   45  111 1    
    90   46  112 1    
    91   46  113 1    
    92   46  114 1    
    93   47   48 2    
    94   47   49 am   BACKBONE|DICT|INTERRES
    95   49   50 1    
    96   49  115 1    
    97   50   51 1    
    98   50   52 1    
    99   50  116 1    
   100   51  117 1    
   101   51  118 1    
   102   51  119 1    
   103   52   53 2    
   104   52   54 am   BACKBONE|DICT|INTERRES
   105   54   55 1    
   106   54  120 1    
   107   55   56 1    
   108   55   57 1    
   109   55  121 1    
   110   56  122 1    
   111   56  123 1    
   112   56  124 1    
   113   57   58 2    
   114   57   59 am   BACKBONE|DICT|INTERRES
   115   59   60 1    
   116   59  125 1    
   117   60   61 1    
   118   60   62 1    
   119   60  126 1    
   120   61  127 1    
   121   61  128 1    
   122   61  129 1    
   123   62   63 2    
   124   62   64 am   BACKBONE|DICT|INTERRES
   125   64   65 1    
   126   64  130 1    
   127   65   66 1    
   128   65   69 1    
   129   65  131 1    
   130   66   67 am   BACKBONE|DICT|INTERRES
   131   66   68 2    
   132   67  132 1    
   133   67  133 1    
   134   69   70 1    
   135   69  134 1    
   136   69  135 1    
   137   70   71 1    
   138   71  136 1    
   139   71  137 1    
@<TRIPOS>SUBSTRUCTURE
     1 UNK         1 GROUP             0       ****    0 ROOT    
