@<TRIPOS>MOLECULE
3R137
137   139    1
SMALL
USER_CHARGES


@<TRIPOS>ATOM
      1 CA         22.8734   -4.7350   -3.3039 C.3       0 UNK        -0.2020 
      2 C          23.7593   -4.0563   -2.2711 C.2       0 UNK         0.4855 
      3 O          23.3267   -3.0980   -1.6299 O.2       0 UNK        -0.5197 
      4 N          25.0014   -4.5334   -2.1153 N.am      1 UNK        -0.4892 
      5 CA         26.0229   -3.9887   -1.2136 C.3       1 UNK         0.0835 
      6 C6         27.3041   -4.8656   -1.1792 C.3       12 UNK        -0.0855 
      7 S7         27.9611   -5.3455   -2.8214 S.3       12 UNK        -0.2931 
      8 C8         29.7240   -5.6115   -2.4505 C.3       12 UNK         0.0378 
      9 C9         30.6133   -4.4974   -2.9906 C.ar      12 UNK        -0.0802 
     10 C10        31.5029   -4.7610   -4.0388 C.ar      12 UNK        -0.0944 
     11 C11        32.3838   -3.7737   -4.4906 C.ar      12 UNK        -0.0787 
     12 C12        32.3651   -2.5128   -3.8908 C.ar      12 UNK        -0.0862 
     13 C13        31.4636   -2.2244   -2.8639 C.ar      12 UNK        -0.0733 
     14 C14        30.5906   -3.2219   -2.4141 C.ar      12 UNK        -0.0832 
     15 C15        31.4692   -0.8422   -2.2254 C.3       12 UNK         0.0240 
     16 S16        30.9023    0.4523   -3.3772 S.3       12 UNK        -0.2522 
     17 C17        29.1201    0.0912   -3.4809 C.3       12 UNK        -0.0967 
     18 CA         28.6051   -0.0337   -4.9383 C.3       5 UNK         0.0660 
     19 N          27.4227   -0.8975   -5.0038 N.am      5 UNK        -0.4015 
     20 C          26.7505   -1.2453   -6.1098 C.2       4 UNK         0.4946 
     21 O          27.0799   -0.9286   -7.2500 O.2       4 UNK        -0.5353 
     22 CA         25.4467   -2.0304   -5.9046 C.3       4 UNK         0.0277 
     23 CB         25.7259   -3.5259   -5.6877 C.3       4 UNK        -0.1981 
     24 N          24.6625   -1.4916   -4.7915 N.am      4 UNK        -0.4209 
     25 C          24.0490   -0.2989   -4.8135 C.2       3 UNK         0.4942 
     26 O          24.0281    0.4422   -5.7955 O.2       3 UNK        -0.5208 
     27 CA         23.3879    0.1673   -3.5069 C.3       3 UNK         0.0250 
     28 CB         21.9709   -0.4121   -3.3737 C.3       3 UNK        -0.1990 
     29 N          24.1861   -0.1768   -2.3270 N.am      3 UNK        -0.4232 
     30 C          25.3631    0.3981   -2.0341 C.2       2 UNK         0.4993 
     31 O          25.8696    1.2941   -2.7092 O.2       2 UNK        -0.5286 
     32 CA         26.1360   -0.1484   -0.8192 C.3       2 UNK         0.0209 
     33 CB         25.7075    0.5811    0.4636 C.3       2 UNK        -0.1931 
     34 N          25.9986   -1.5970   -0.6302 N.am      2 UNK        -0.4546 
     35 C          26.3308   -2.5160   -1.5476 C.2       1 UNK         0.5154 
     36 O          26.8070   -2.2298   -2.6455 O.2       1 UNK        -0.5181 
     37 C          28.3476    1.3563   -5.5607 C.2       5 UNK         0.5014 
     38 O          29.1848    1.8507   -6.3155 O.2       5 UNK        -0.5248 
     39 N          27.1897    1.9554   -5.2427 N.am      6 UNK        -0.4434 
     40 CA         26.7365    3.2276   -5.8051 C.3       6 UNK         0.0363 
     41 CB         25.5405    3.7529   -4.9949 C.3       6 UNK        -0.1936 
     42 C          26.3814    3.1301   -7.2987 C.2       6 UNK         0.5081 
     43 O          26.7533    4.0219   -8.0621 O.2       6 UNK        -0.5248 
     44 N          25.6600    2.0683   -7.6872 N.am      7 UNK        -0.4718 
     45 CA         25.2252    1.8230   -9.0647 C.3       7 UNK         0.0273 
     46 CB         24.1679    0.7069   -9.0857 C.3       7 UNK        -0.1935 
     47 C          26.3913    1.4909  -10.0087 C.2       7 UNK         0.5018 
     48 O          26.5294    2.1302  -11.0527 O.2       7 UNK        -0.5186 
     49 N          27.2148    0.5098   -9.6236 N.am      8 UNK        -0.4240 
     50 CA         28.4012    0.0758  -10.3532 C.3       8 UNK         0.0235 
     51 CB         28.4827   -1.4624  -10.3183 C.3       8 UNK        -0.2000 
     52 C          29.6305    0.7440   -9.7270 C.2       8 UNK         0.4941 
     53 O          30.4313    0.0755   -9.0726 O.2       8 UNK        -0.5273 
     54 N          29.7654    2.0593   -9.9522 N.am      9 UNK        -0.4262 
     55 CA         30.8228    2.9223   -9.4043 C.3       9 UNK         0.0264 
     56 CB         30.6123    4.3589   -9.9079 C.3       9 UNK        -0.1955 
     57 C          32.2644    2.4546   -9.6881 C.2       9 UNK         0.5031 
     58 O          33.1663    2.7762   -8.9130 O.2       9 UNK        -0.5390 
     59 N          32.4503    1.6642  -10.7556 N.am      10 UNK        -0.4204 
     60 CA         33.6916    0.9671  -11.1030 C.3       10 UNK         0.0237 
     61 CB         33.5020    0.2477  -12.4485 C.3       10 UNK        -0.1985 
     62 C          34.1889   -0.0233  -10.0292 C.2       10 UNK         0.4970 
     63 O          35.3864   -0.3113  -10.0069 O.2       10 UNK        -0.4914 
     64 N          33.2931   -0.5103   -9.1557 N.am      11 UNK        -0.4285 
     65 CA         33.6467   -1.2957   -7.9616 C.3       11 UNK         0.1007 
     66 C          34.3515   -0.4613   -6.8471 C.2       11 UNK         0.5703 
     67 N          34.3270    0.8672   -6.8799 N.am      11 UNK        -0.7361 
     68 O          34.9550   -1.0293   -5.9418 O.2       11 UNK        -0.4986 
     69 C69        32.4215   -2.0892   -7.4101 C.3       12 UNK        -0.0947 
     70 S70        32.7107   -3.8864   -7.2654 S.3       12 UNK        -0.2240 
     71 C71        33.3931   -4.0824   -5.5879 C.3       12 UNK         0.0194 
     72 H72        21.9679   -5.1124   -2.8295 H         1 UNK         0.0906 
     73 H73        22.5820   -4.0228   -4.0753 H         1 UNK         0.0906 
     74 H74        23.3772   -5.5721   -3.7869 H         1 UNK         0.0906 
     75 H75        25.3218   -5.2969   -2.6951 H         1 UNK         0.3140 
     76 H76        25.5938   -4.0131   -0.2095 H         1 UNK         0.1085 
     77 H77        27.0871   -5.7889   -0.6397 H         1 UNK         0.0836 
     78 H78        28.0843   -4.3701   -0.5984 H         1 UNK         0.0836 
     79 H79        30.0170   -6.5701   -2.8814 H         1 UNK         0.0731 
     80 H80        29.8789   -5.7135   -1.3756 H         1 UNK         0.0731 
     81 H81        31.5298   -5.7437   -4.4898 H         1 UNK         0.1312 
     82 H82        33.0530   -1.7480   -4.2242 H         1 UNK         0.1406 
     83 H83        29.9010   -3.0125   -1.6082 H         1 UNK         0.1631 
     84 H84        32.4848   -0.6045   -1.9055 H         1 UNK         0.0717 
     85 H85        30.8537   -0.8216   -1.3246 H         1 UNK         0.0717 
     86 H86        28.9426   -0.8420   -2.9474 H         1 UNK         0.0934 
     87 H87        28.5724    0.8521   -2.9221 H         1 UNK         0.0934 
     88 H88        29.3704   -0.5282   -5.5410 H         1 UNK         0.0739 
     89 H89        27.1044   -1.2850   -4.1162 H         1 UNK         0.3093 
     90 H90        24.8523   -1.9294   -6.8152 H         1 UNK         0.0818 
     91 H91        26.2973   -3.9375   -6.5207 H         1 UNK         0.0819 
     92 H92        26.3031   -3.7063   -4.7813 H         1 UNK         0.0819 
     93 H93        24.8007   -4.0970   -5.6184 H         1 UNK         0.0819 
     94 H94        24.6934   -2.0013   -3.9205 H         1 UNK         0.3041 
     95 H95        23.3034    1.2555   -3.5502 H         1 UNK         0.0784 
     96 H96        21.3504   -0.1172   -4.2211 H         1 UNK         0.0793 
     97 H97        21.9764   -1.5016   -3.3397 H         1 UNK         0.0793 
     98 H98        21.4780   -0.0512   -2.4709 H         1 UNK         0.0793 
     99 H99        23.8574   -0.9475   -1.7558 H         1 UNK         0.3024 
    100 H100       27.1941    0.0594   -0.9911 H         1 UNK         0.1171 
    101 H101       26.3176    0.2793    1.3152 H         1 UNK         0.0786 
    102 H102       25.8200    1.6608    0.3540 H         1 UNK         0.0786 
    103 H103       24.6633    0.3856    0.7109 H         1 UNK         0.0786 
    104 H104       25.5778   -1.9011    0.2365 H         1 UNK         0.2977 
    105 H105       26.5893    1.5260   -4.5444 H         1 UNK         0.3127 
    106 H106       27.5529    3.9463   -5.7056 H         1 UNK         0.0770 
    107 H107       24.6965    3.0629   -5.0261 H         1 UNK         0.0814 
    108 H108       25.1948    4.7109   -5.3853 H         1 UNK         0.0814 
    109 H109       25.8072    3.9055   -3.9490 H         1 UNK         0.0814 
    110 H110       25.3484    1.4030   -6.9857 H         1 UNK         0.2983 
    111 H111       24.7549    2.7371   -9.4339 H         1 UNK         0.0947 
    112 H112       24.5582   -0.2281   -8.6825 H         1 UNK         0.0806 
    113 H113       23.8272    0.5088  -10.1028 H         1 UNK         0.0806 
    114 H114       23.2918    0.9818   -8.4980 H         1 UNK         0.0806 
    115 H115       27.0699    0.0627   -8.7166 H         1 UNK         0.3000 
    116 H116       28.3439    0.3821  -11.4000 H         1 UNK         0.0850 
    117 H117       29.3555   -1.8184  -10.8668 H         1 UNK         0.0810 
    118 H118       27.6031   -1.9157  -10.7751 H         1 UNK         0.0810 
    119 H119       28.5625   -1.8426   -9.2990 H         1 UNK         0.0810 
    120 H120       29.0394    2.5213  -10.4835 H         1 UNK         0.3040 
    121 H121       30.7006    2.9212   -8.3195 H         1 UNK         0.0766 
    122 H122       29.6379    4.7449   -9.6068 H         1 UNK         0.0812 
    123 H123       30.6791    4.4200  -10.9948 H         1 UNK         0.0812 
    124 H124       31.3658    5.0318   -9.4958 H         1 UNK         0.0812 
    125 H125       31.6441    1.4592  -11.3269 H         1 UNK         0.3205 
    126 H126       34.4677    1.7256  -11.2245 H         1 UNK         0.0754 
    127 H127       34.4197   -0.2570  -12.7546 H         1 UNK         0.0769 
    128 H128       33.2417    0.9488  -13.2418 H         1 UNK         0.0769 
    129 H129       32.7172   -0.5082  -12.3948 H         1 UNK         0.0769 
    130 H130       32.3182   -0.2283   -9.2236 H         1 UNK         0.2981 
    131 H131       34.3955   -2.0186   -8.2908 H         1 UNK         0.0541 
    132 H132       34.7976    1.3801   -6.1521 H         1 UNK         0.3459 
    133 H133       33.8597    1.3714   -7.6252 H         1 UNK         0.3459 
    134 H134       32.0511   -1.6847   -6.4679 H         1 UNK         0.0612 
    135 H135       31.5747   -1.9998   -8.0903 H         1 UNK         0.0612 
    136 H136       33.7376   -5.1118   -5.4787 H         1 UNK         0.0624 
    137 H137       34.2826   -3.4632   -5.4784 H         1 UNK         0.0624 
@<TRIPOS>BOND
     1    1    2 1    
     2    1   72 1    
     3    1   73 1    
     4    1   74 1    
     5    2    3 2    
     6    2    4 am   BACKBONE|DICT|INTERRES
     7    4    5 1    
     8    4   75 1    
     9    5    6 1    
    10    5   35 1    
    11    5   76 1    
    12    6    7 1    
    13    6   77 1    
    14    6   78 1    
    15    7    8 1    
    16    8    9 1    
    17    8   79 1    
    18    8   80 1    
    19    9   10 ar   
    20    9   14 ar   
    21   10   11 ar   
    22   10   81 1    
    23   11   12 ar   
    24   11   71 1    
    25   12   13 ar   
    26   12   82 1    
    27   13   14 ar   
    28   13   15 1    
    29   14   83 1    
    30   15   16 1    
    31   15   84 1    
    32   15   85 1    
    33   16   17 1    
    34   17   18 1    
    35   17   86 1    
    36   17   87 1    
    37   18   19 1    
    38   18   37 1    
    39   18   88 1    
    40   19   20 am   BACKBONE|DICT|INTERRES
    41   19   89 1    
    42   20   21 2    
    43   20   22 1    
    44   22   23 1    
    45   22   24 1    
    46   22   90 1    
    47   23   91 1    
    48   23   92 1    
    49   23   93 1    
    50   24   25 am   BACKBONE|DICT|INTERRES
    51   24   94 1    
    52   25   26 2    
    53   25   27 1    
    54   27   28 1    
    55   27   29 1    
    56   27   95 1    
    57   28   96 1    
    58   28   97 1    
    59   28   98 1    
    60   29   30 am   BACKBONE|DICT|INTERRES
    61   29   99 1    
    62   30   31 2    
    63   30   32 1    
    64   32   33 1    
    65   32   34 1    
    66   32  100 1    
    67   33  101 1    
    68   33  102 1    
    69   33  103 1    
    70   34   35 am   BACKBONE|DICT|INTERRES
    71   34  104 1    
    72   35   36 2    
    73   37   38 2    
    74   37   39 am   BACKBONE|DICT|INTERRES
    75   39   40 1    
    76   39  105 1    
    77   40   41 1    
    78   40   42 1    
    79   40  106 1    
    80   41  107 1    
    81   41  108 1    
    82   41  109 1    
    83   42   43 2    
    84   42   44 am   BACKBONE|DICT|INTERRES
    85   44   45 1    
    86   44  110 1    
    87   45   46 1    
    88   45   47 1    
    89   45  111 1    
    90   46  112 1    
    91   46  113 1    
    92   46  114 1    
    93   47   48 2    
    94   47   49 am   BACKBONE|DICT|INTERRES
    95   49   50 1    
    96   49  115 1    
    97   50   51 1    
    98   50   52 1    
    99   50  116 1    
   100   51  117 1    
   101   51  118 1    
   102   51  119 1    
   103   52   53 2    
   104   52   54 am   BACKBONE|DICT|INTERRES
   105   54   55 1    
   106   54  120 1    
   107   55   56 1    
   108   55   57 1    
   109   55  121 1    
   110   56  122 1    
   111   56  123 1    
   112   56  124 1    
   113   57   58 2    
   114   57   59 am   BACKBONE|DICT|INTERRES
   115   59   60 1    
   116   59  125 1    
   117   60   61 1    
   118   60   62 1    
   119   60  126 1    
   120   61  127 1    
   121   61  128 1    
   122   61  129 1    
   123   62   63 2    
   124   62   64 am   BACKBONE|DICT|INTERRES
   125   64   65 1    
   126   64  130 1    
   127   65   66 1    
   128   65   69 1    
   129   65  131 1    
   130   66   67 am   BACKBONE|DICT|INTERRES
   131   66   68 2    
   132   67  132 1    
   133   67  133 1    
   134   69   70 1    
   135   69  134 1    
   136   69  135 1    
   137   70   71 1    
   138   71  136 1    
   139   71  137 1    
@<TRIPOS>SUBSTRUCTURE
     1 UNK         1 GROUP             0       ****    0 ROOT    
