@<TRIPOS>MOLECULE
3R137
137   139    1
SMALL
USER_CHARGES


@<TRIPOS>ATOM
      1 CA         26.2503   -5.7704   -3.0695 C.3       0 UNK        -0.2020 
      2 C          26.3414   -5.0258   -1.7471 C.2       0 UNK         0.4855 
      3 O          25.4254   -5.1156   -0.9297 O.2       0 UNK        -0.5197 
      4 N          27.4374   -4.2866   -1.5311 N.am      1 UNK        -0.4892 
      5 CA         27.7145   -3.5366   -0.2937 C.3       1 UNK         0.0835 
      6 C6         29.2248   -3.5037    0.0615 C.3       12 UNK        -0.0855 
      7 S7         29.9877   -5.1689    0.0531 S.3       12 UNK        -0.2931 
      8 C8         31.6672   -4.8593   -0.5961 C.3       12 UNK         0.0378 
      9 C9         31.6753   -4.0210   -1.8686 C.ar      12 UNK        -0.0802 
     10 C10        32.3781   -2.8129   -1.9010 C.ar      12 UNK        -0.0944 
     11 C11        32.3617   -1.9990   -3.0371 C.ar      12 UNK        -0.0787 
     12 C12        31.6244   -2.4157   -4.1543 C.ar      12 UNK        -0.0862 
     13 C13        30.9060   -3.6168   -4.1321 C.ar      12 UNK        -0.0733 
     14 C14        30.9526   -4.4255   -2.9942 C.ar      12 UNK        -0.0832 
     15 C15        30.0651   -4.0373   -5.3299 C.3       12 UNK         0.0240 
     16 S16        28.2948   -3.6567   -5.0998 S.3       12 UNK        -0.2522 
     17 C17        28.2739   -1.8344   -5.0930 C.3       12 UNK        -0.0967 
     18 CA         27.7133   -1.2402   -6.4068 C.3       5 UNK         0.0660 
     19 N          26.2727   -1.4716   -6.5576 N.am      5 UNK        -0.4015 
     20 C          25.5624   -1.1488   -7.6499 C.2       4 UNK         0.4946 
     21 O          26.0476   -0.6436   -8.6623 O.2       4 UNK        -0.5353 
     22 CA         24.0427   -1.3755   -7.5931 C.3       4 UNK         0.0277 
     23 CB         23.7013   -2.8156   -8.0069 C.3       4 UNK        -0.1981 
     24 N          23.4399   -1.0855   -6.2894 N.am      4 UNK        -0.4209 
     25 C          23.5492    0.0640   -5.6073 C.2       3 UNK         0.4942 
     26 O          24.2016    1.0343   -5.9927 O.2       3 UNK        -0.5208 
     27 CA         22.8431    0.1436   -4.2432 C.3       3 UNK         0.0250 
     28 CB         21.7766   -0.9540   -4.0211 C.3       3 UNK        -0.1990 
     29 N          23.7970    0.1549   -3.1279 N.am      3 UNK        -0.4232 
     30 C          24.7397   -0.7611   -2.8586 C.2       2 UNK         0.4993 
     31 O          25.0128   -1.7116   -3.6009 O.2       2 UNK        -0.5286 
     32 CA         25.4857   -0.6045   -1.5221 C.3       2 UNK         0.0209 
     33 CB         24.5101   -0.3351   -0.3512 C.3       2 UNK        -0.1931 
     34 N          26.2341   -1.8381   -1.2962 N.am      2 UNK        -0.4546 
     35 C          27.1070   -2.1133   -0.3205 C.2       1 UNK         0.5154 
     36 O          27.4415   -1.2942    0.5372 O.2       1 UNK        -0.5181 
     37 C          28.0679    0.2557   -6.4938 C.2       5 UNK         0.5014 
     38 O          29.0290    0.6096   -7.1793 O.2       5 UNK        -0.5248 
     39 N          27.2826    1.0957   -5.8060 N.am      6 UNK        -0.4434 
     40 CA         27.4514    2.5468   -5.7739 C.3       6 UNK         0.0363 
     41 CB         26.7130    3.1230   -4.5547 C.3       6 UNK        -0.1936 
     42 C          26.9662    3.2081   -7.0711 C.2       6 UNK         0.5081 
     43 O          27.6315    4.1166   -7.5663 O.2       6 UNK        -0.5248 
     44 N          25.8342    2.7300   -7.6074 N.am      7 UNK        -0.4718 
     45 CA         25.2238    3.2148   -8.8478 C.3       7 UNK         0.0273 
     46 CB         23.8411    2.5699   -9.0296 C.3       7 UNK        -0.1935 
     47 C          26.1034    2.9753  -10.0851 C.2       7 UNK         0.5018 
     48 O          26.2375    3.8781  -10.9122 O.2       7 UNK        -0.5186 
     49 N          26.7033    1.7801  -10.1801 N.am      8 UNK        -0.4240 
     50 CA         27.6529    1.4277  -11.2385 C.3       8 UNK         0.0235 
     51 CB         27.7067   -0.1029  -11.3770 C.3       8 UNK        -0.2000 
     52 C          29.0678    1.9806  -10.9919 C.2       8 UNK         0.4941 
     53 O          29.8549    2.0242  -11.9381 O.2       8 UNK        -0.5273 
     54 N          29.3764    2.3459   -9.7356 N.am      9 UNK        -0.4262 
     55 CA         30.7060    2.6783   -9.2032 C.3       9 UNK         0.0264 
     56 CB         31.2285    4.0042   -9.7941 C.3       9 UNK        -0.1955 
     57 C          31.6848    1.5009   -9.3835 C.2       9 UNK         0.5031 
     58 O          32.8109    1.6858   -9.8497 O.2       9 UNK        -0.5390 
     59 N          31.2038    0.2972   -9.0430 N.am      10 UNK        -0.4204 
     60 CA         31.8131   -0.9962   -9.3677 C.3       10 UNK         0.0237 
     61 CB         30.8560   -2.1157   -8.9329 C.3       10 UNK        -0.1985 
     62 C          33.2136   -1.2150   -8.7726 C.2       10 UNK         0.4970 
     63 O          34.0419   -1.8702   -9.4061 O.2       10 UNK        -0.4914 
     64 N          33.4479   -0.6559   -7.5822 N.am      11 UNK        -0.4285 
     65 CA         34.7441   -0.6371   -6.8905 C.3       11 UNK         0.1007 
     66 C          35.6142    0.6157   -7.2085 C.2       11 UNK         0.5703 
     67 N          35.2079    1.5116   -8.1018 N.am      11 UNK        -0.7361 
     68 O          36.6980    0.7695   -6.6498 O.2       11 UNK        -0.4986 
     69 C69        34.5756   -0.8944   -5.3687 C.3       12 UNK        -0.0947 
     70 S70        33.3618    0.2044   -4.5616 S.3       12 UNK        -0.2240 
     71 C71        33.1184   -0.6678   -2.9764 C.3       12 UNK         0.0194 
     72 H72        25.7007   -5.1753   -3.7986 H         1 UNK         0.0906 
     73 H73        25.7285   -6.7180   -2.9376 H         1 UNK         0.0906 
     74 H74        27.2384   -5.9881   -3.4742 H         1 UNK         0.0906 
     75 H75        28.1512   -4.2288   -2.2444 H         1 UNK         0.3140 
     76 H76        27.2143   -4.0478    0.5320 H         1 UNK         0.1085 
     77 H77        29.3722   -3.0799    1.0567 H         1 UNK         0.0836 
     78 H78        29.7479   -2.8367   -0.6235 H         1 UNK         0.0836 
     79 H79        32.2548   -4.3782    0.1875 H         1 UNK         0.0731 
     80 H80        32.1509   -5.8160   -0.7973 H         1 UNK         0.0731 
     81 H81        32.9289   -2.4919   -1.0269 H         1 UNK         0.1312 
     82 H82        31.5852   -1.8000   -5.0409 H         1 UNK         0.1406 
     83 H83        30.3991   -5.3548   -2.9701 H         1 UNK         0.1631 
     84 H84        30.1727   -5.1113   -5.4888 H         1 UNK         0.0717 
     85 H85        30.4271   -3.5634   -6.2406 H         1 UNK         0.0717 
     86 H86        27.6837   -1.5039   -4.2366 H         1 UNK         0.0934 
     87 H87        29.2805   -1.4649   -4.9061 H         1 UNK         0.0934 
     88 H88        28.2086   -1.7310   -7.2471 H         1 UNK         0.0739 
     89 H89        25.7891   -1.8544   -5.7537 H         1 UNK         0.3093 
     90 H90        23.5848   -0.6988   -8.3160 H         1 UNK         0.0818 
     91 H91        24.1237   -3.0505   -8.9852 H         1 UNK         0.0819 
     92 H92        24.0957   -3.5450   -7.2981 H         1 UNK         0.0819 
     93 H93        22.6237   -2.9643   -8.0786 H         1 UNK         0.0819 
     94 H94        22.9098   -1.8312   -5.8626 H         1 UNK         0.3041 
     95 H95        22.3313    1.1071   -4.2269 H         1 UNK         0.0784 
     96 H96        21.0405   -0.9608   -4.8264 H         1 UNK         0.0793 
     97 H97        22.2126   -1.9518   -3.9560 H         1 UNK         0.0793 
     98 H98        21.2291   -0.7794   -3.0948 H         1 UNK         0.0793 
     99 H99        23.6828    0.9188   -2.4766 H         1 UNK         0.3024 
    100 H100       26.1925    0.2223   -1.6173 H         1 UNK         0.1171 
    101 H101       23.9773    0.6077   -0.4776 H         1 UNK         0.0786 
    102 H102       23.7636   -1.1257   -0.2632 H         1 UNK         0.0786 
    103 H103       25.0290   -0.2641    0.6042 H         1 UNK         0.0786 
    104 H104       26.0457   -2.5511   -1.9922 H         1 UNK         0.2977 
    105 H105       26.4594    0.7271   -5.3502 H         1 UNK         0.3127 
    106 H106       28.5155    2.7684   -5.6629 H         1 UNK         0.0770 
    107 H107       25.6412    2.9255   -4.5970 H         1 UNK         0.0814 
    108 H108       26.8424    4.2046   -4.4982 H         1 UNK         0.0814 
    109 H109       27.0954    2.7028   -3.6244 H         1 UNK         0.0814 
    110 H110       25.3227    2.0124   -7.0966 H         1 UNK         0.2983 
    111 H111       25.0857    4.2935   -8.7460 H         1 UNK         0.0947 
    112 H112       23.9142    1.4885   -9.1426 H         1 UNK         0.0806 
    113 H113       23.3433    2.9582   -9.9192 H         1 UNK         0.0806 
    114 H114       23.1918    2.7746   -8.1781 H         1 UNK         0.0806 
    115 H115       26.5002    1.0609   -9.4890 H         1 UNK         0.3000 
    116 H116       27.2968    1.8419  -12.1844 H         1 UNK         0.0850 
    117 H117       28.3618   -0.3997  -12.1970 H         1 UNK         0.0810 
    118 H118       26.7200   -0.5185  -11.5823 H         1 UNK         0.0810 
    119 H119       28.0859   -0.5752  -10.4699 H         1 UNK         0.0810 
    120 H120       28.6466    2.2693   -9.0398 H         1 UNK         0.3040 
    121 H121       30.5828    2.8191   -8.1282 H         1 UNK         0.0766 
    122 H122       31.4221    3.9252  -10.8642 H         1 UNK         0.0812 
    123 H123       32.1633    4.3005   -9.3169 H         1 UNK         0.0812 
    124 H124       30.5143    4.8132   -9.6404 H         1 UNK         0.0812 
    125 H125       30.3028    0.2777   -8.5701 H         1 UNK         0.3205 
    126 H126       31.9177   -1.0402  -10.4537 H         1 UNK         0.0754 
    127 H127       31.2906   -3.1013   -9.1067 H         1 UNK         0.0769 
    128 H128       29.9180   -2.0732   -9.4867 H         1 UNK         0.0769 
    129 H129       30.6207   -2.0381   -7.8726 H         1 UNK         0.0769 
    130 H130       32.7152   -0.1162   -7.1458 H         1 UNK         0.2981 
    131 H131       35.3386   -1.4714   -7.2670 H         1 UNK         0.0541 
    132 H132       35.7959    2.3068   -8.2930 H         1 UNK         0.3459 
    133 H133       34.3413    1.3978   -8.6170 H         1 UNK         0.3459 
    134 H134       35.5294   -0.8133   -4.8445 H         1 UNK         0.0612 
    135 H135       34.2525   -1.9260   -5.2237 H         1 UNK         0.0612 
    136 H136       34.0974   -0.8265   -2.5213 H         1 UNK         0.0624 
    137 H137       32.5736    0.0004   -2.3083 H         1 UNK         0.0624 
@<TRIPOS>BOND
     1    1    2 1    
     2    1   72 1    
     3    1   73 1    
     4    1   74 1    
     5    2    3 2    
     6    2    4 am   BACKBONE|DICT|INTERRES
     7    4    5 1    
     8    4   75 1    
     9    5    6 1    
    10    5   35 1    
    11    5   76 1    
    12    6    7 1    
    13    6   77 1    
    14    6   78 1    
    15    7    8 1    
    16    8    9 1    
    17    8   79 1    
    18    8   80 1    
    19    9   10 ar   
    20    9   14 ar   
    21   10   11 ar   
    22   10   81 1    
    23   11   12 ar   
    24   11   71 1    
    25   12   13 ar   
    26   12   82 1    
    27   13   14 ar   
    28   13   15 1    
    29   14   83 1    
    30   15   16 1    
    31   15   84 1    
    32   15   85 1    
    33   16   17 1    
    34   17   18 1    
    35   17   86 1    
    36   17   87 1    
    37   18   19 1    
    38   18   37 1    
    39   18   88 1    
    40   19   20 am   BACKBONE|DICT|INTERRES
    41   19   89 1    
    42   20   21 2    
    43   20   22 1    
    44   22   23 1    
    45   22   24 1    
    46   22   90 1    
    47   23   91 1    
    48   23   92 1    
    49   23   93 1    
    50   24   25 am   BACKBONE|DICT|INTERRES
    51   24   94 1    
    52   25   26 2    
    53   25   27 1    
    54   27   28 1    
    55   27   29 1    
    56   27   95 1    
    57   28   96 1    
    58   28   97 1    
    59   28   98 1    
    60   29   30 am   BACKBONE|DICT|INTERRES
    61   29   99 1    
    62   30   31 2    
    63   30   32 1    
    64   32   33 1    
    65   32   34 1    
    66   32  100 1    
    67   33  101 1    
    68   33  102 1    
    69   33  103 1    
    70   34   35 am   BACKBONE|DICT|INTERRES
    71   34  104 1    
    72   35   36 2    
    73   37   38 2    
    74   37   39 am   BACKBONE|DICT|INTERRES
    75   39   40 1    
    76   39  105 1    
    77   40   41 1    
    78   40   42 1    
    79   40  106 1    
    80   41  107 1    
    81   41  108 1    
    82   41  109 1    
    83   42   43 2    
    84   42   44 am   BACKBONE|DICT|INTERRES
    85   44   45 1    
    86   44  110 1    
    87   45   46 1    
    88   45   47 1    
    89   45  111 1    
    90   46  112 1    
    91   46  113 1    
    92   46  114 1    
    93   47   48 2    
    94   47   49 am   BACKBONE|DICT|INTERRES
    95   49   50 1    
    96   49  115 1    
    97   50   51 1    
    98   50   52 1    
    99   50  116 1    
   100   51  117 1    
   101   51  118 1    
   102   51  119 1    
   103   52   53 2    
   104   52   54 am   BACKBONE|DICT|INTERRES
   105   54   55 1    
   106   54  120 1    
   107   55   56 1    
   108   55   57 1    
   109   55  121 1    
   110   56  122 1    
   111   56  123 1    
   112   56  124 1    
   113   57   58 2    
   114   57   59 am   BACKBONE|DICT|INTERRES
   115   59   60 1    
   116   59  125 1    
   117   60   61 1    
   118   60   62 1    
   119   60  126 1    
   120   61  127 1    
   121   61  128 1    
   122   61  129 1    
   123   62   63 2    
   124   62   64 am   BACKBONE|DICT|INTERRES
   125   64   65 1    
   126   64  130 1    
   127   65   66 1    
   128   65   69 1    
   129   65  131 1    
   130   66   67 am   BACKBONE|DICT|INTERRES
   131   66   68 2    
   132   67  132 1    
   133   67  133 1    
   134   69   70 1    
   135   69  134 1    
   136   69  135 1    
   137   70   71 1    
   138   71  136 1    
   139   71  137 1    
@<TRIPOS>SUBSTRUCTURE
     1 UNK         1 GROUP             0       ****    0 ROOT    
