@<TRIPOS>MOLECULE
3R137
137   139    1
SMALL
USER_CHARGES


@<TRIPOS>ATOM
      1 CA         28.2141   -4.9771   -7.9968 C.3       0 UNK        -0.2020 
      2 C          27.3483   -5.3089   -6.7909 C.2       0 UNK         0.4855 
      3 O          26.5286   -6.2253   -6.8573 O.2       0 UNK        -0.5197 
      4 N          27.5358   -4.5803   -5.6854 N.am      1 UNK        -0.4892 
      5 CA         26.7902   -4.7613   -4.4382 C.3       1 UNK         0.0835 
      6 C6         27.5790   -4.2252   -3.2242 C.3       12 UNK        -0.0855 
      7 S7         29.0014   -5.2711   -2.7618 S.3       12 UNK        -0.2931 
      8 C8         30.4218   -4.3791   -3.4900 C.3       12 UNK         0.0378 
      9 C9         30.7448   -2.9956   -2.9151 C.ar      12 UNK        -0.0802 
     10 C10        31.8684   -2.3288   -3.4129 C.ar      12 UNK        -0.0944 
     11 C11        32.2032   -1.0477   -2.9661 C.ar      12 UNK        -0.0787 
     12 C12        31.3811   -0.4076   -2.0343 C.ar      12 UNK        -0.0862 
     13 C13        30.2502   -1.0565   -1.5273 C.ar      12 UNK        -0.0733 
     14 C14        29.9646   -2.3602   -1.9389 C.ar      12 UNK        -0.0832 
     15 C15        29.3178   -0.3497   -0.5494 C.3       12 UNK         0.0240 
     16 S16        27.6474   -0.0844   -1.2486 S.3       12 UNK        -0.2522 
     17 C17        28.0218    0.8897   -2.7437 C.3       12 UNK        -0.0967 
     18 CA         27.7561    0.0672   -4.0417 C.3       5 UNK         0.0660 
     19 N          26.3343    0.0193   -4.4161 N.am      5 UNK        -0.4015 
     20 C          25.6251    1.0429   -4.9221 C.2       4 UNK         0.4946 
     21 O          26.0754    2.1782   -5.0913 O.2       4 UNK        -0.5353 
     22 CA         24.1746    0.7576   -5.3360 C.3       4 UNK         0.0277 
     23 CB         24.1237    0.0612   -6.7054 C.3       4 UNK        -0.1981 
     24 N          23.4406   -0.0505   -4.3659 N.am      4 UNK        -0.4209 
     25 C          23.0426    0.3543   -3.1505 C.2       3 UNK         0.4942 
     26 O          23.2883    1.4680   -2.6863 O.2       3 UNK        -0.5208 
     27 CA         22.1889   -0.6317   -2.3255 C.3       3 UNK         0.0250 
     28 CB         20.7460   -0.1154   -2.1908 C.3       3 UNK        -0.1990 
     29 N          22.1582   -1.9740   -2.9159 N.am      3 UNK        -0.4232 
     30 C          23.1281   -2.8831   -2.7599 C.2       2 UNK         0.4993 
     31 O          24.0553   -2.7515   -1.9573 O.2       2 UNK        -0.5286 
     32 CA         23.0678   -4.1364   -3.6601 C.3       2 UNK         0.0209 
     33 CB         22.3035   -3.9197   -4.9880 C.3       2 UNK        -0.1931 
     34 N          24.4085   -4.6744   -3.9243 N.am      2 UNK        -0.4546 
     35 C          25.4345   -4.0377   -4.5110 C.2       1 UNK         0.5154 
     36 O          25.3686   -2.9076   -5.0083 O.2       1 UNK        -0.5181 
     37 C          28.5968    0.5049   -5.2599 C.2       5 UNK         0.5014 
     38 O          28.5937   -0.2049   -6.2682 O.2       5 UNK        -0.5248 
     39 N          29.2489    1.6737   -5.1823 N.am      6 UNK        -0.4434 
     40 CA         30.0777    2.2633   -6.2345 C.3       6 UNK         0.0363 
     41 CB         30.7066    3.5654   -5.7166 C.3       6 UNK        -0.1936 
     42 C          29.3506    2.5086   -7.5639 C.2       6 UNK         0.5081 
     43 O          29.9989    2.4478   -8.6072 O.2       6 UNK        -0.5248 
     44 N          28.0282    2.7263   -7.5245 N.am      7 UNK        -0.4718 
     45 CA         27.1966    2.8792   -8.7221 C.3       7 UNK         0.0273 
     46 CB         25.8299    3.4632   -8.3295 C.3       7 UNK        -0.1935 
     47 C          27.0389    1.5801   -9.5382 C.2       7 UNK         0.5018 
     48 O          26.6892    1.6638  -10.7162 O.2       7 UNK        -0.5186 
     49 N          27.3066    0.4203   -8.9197 N.am      8 UNK        -0.4240 
     50 CA         27.3233   -0.8881   -9.5757 C.3       8 UNK         0.0235 
     51 CB         26.4193   -1.8625   -8.8027 C.3       8 UNK        -0.2000 
     52 C          28.7517   -1.4426   -9.6828 C.2       8 UNK         0.4941 
     53 O          29.1125   -1.9740  -10.7328 O.2       8 UNK        -0.5273 
     54 N          29.5356   -1.3272   -8.6013 N.am      9 UNK        -0.4262 
     55 CA         30.8839   -1.8887   -8.4845 C.3       9 UNK         0.0264 
     56 CB         31.2320   -2.0379   -6.9937 C.3       9 UNK        -0.1955 
     57 C          31.9750   -1.0832   -9.2113 C.2       9 UNK         0.5031 
     58 O          33.0458   -1.6390   -9.4585 O.2       9 UNK        -0.5390 
     59 N          31.7119    0.1988   -9.5138 N.am      10 UNK        -0.4204 
     60 CA         32.6205    1.1653  -10.1517 C.3       10 UNK         0.0237 
     61 CB         32.9943    0.7221  -11.5830 C.3       10 UNK        -0.1985 
     62 C          33.8549    1.5306   -9.2983 C.2       10 UNK         0.4970 
     63 O          34.8431    2.0270   -9.8414 O.2       10 UNK        -0.4914 
     64 N          33.7743    1.3048   -7.9807 N.am      11 UNK        -0.4285 
     65 CA         34.8130    1.6231   -6.9878 C.3       11 UNK         0.1007 
     66 C          34.9082    3.1256   -6.5861 C.2       11 UNK         0.5703 
     67 N          34.0614    4.0104   -7.0990 N.am      11 UNK        -0.7361 
     68 O          35.7832    3.5001   -5.8088 O.2       11 UNK        -0.4986 
     69 C69        34.7300    0.6766   -5.7588 C.3       12 UNK        -0.0947 
     70 S70        33.0956    0.6494   -4.9495 S.3       12 UNK        -0.2240 
     71 C71        33.4585   -0.3681   -3.4912 C.3       12 UNK         0.0194 
     72 H72        28.9771   -5.7432   -8.1312 H         1 UNK         0.0906 
     73 H73        27.6083   -4.9414   -8.9014 H         1 UNK         0.0906 
     74 H74        28.7131   -4.0160   -7.8840 H         1 UNK         0.0906 
     75 H75        28.1795   -3.8040   -5.6995 H         1 UNK         0.3140 
     76 H76        26.6071   -5.8284   -4.2900 H         1 UNK         0.1085 
     77 H77        26.9400   -4.1700   -2.3394 H         1 UNK         0.0836 
     78 H78        27.8999   -3.2036   -3.4211 H         1 UNK         0.0836 
     79 H79        31.3020   -5.0130   -3.3726 H         1 UNK         0.0731 
     80 H80        30.2567   -4.2861   -4.5638 H         1 UNK         0.0731 
     81 H81        32.4902   -2.8108   -4.1553 H         1 UNK         0.1312 
     82 H82        31.6225    0.5951   -1.7088 H         1 UNK         0.1406 
     83 H83        29.1032   -2.8496   -1.5100 H         1 UNK         0.1631 
     84 H84        29.7318    0.6125   -0.2438 H         1 UNK         0.0717 
     85 H85        29.2304   -0.9479    0.3586 H         1 UNK         0.0717 
     86 H86        27.4277    1.8050   -2.7249 H         1 UNK         0.0934 
     87 H87        29.0613    1.2092   -2.6654 H         1 UNK         0.0934 
     88 H88        28.0627   -0.9622   -3.8598 H         1 UNK         0.0739 
     89 H89        25.9000   -0.8966   -4.3868 H         1 UNK         0.3093 
     90 H90        23.6657    1.7199   -5.4254 H         1 UNK         0.0818 
     91 H91        23.1014   -0.0062   -7.0776 H         1 UNK         0.0819 
     92 H92        24.7026    0.6031   -7.4524 H         1 UNK         0.0819 
     93 H93        24.5272   -0.9502   -6.6552 H         1 UNK         0.0819 
     94 H94        23.2188   -0.9936   -4.6461 H         1 UNK         0.3041 
     95 H95        22.6259   -0.6858   -1.3259 H         1 UNK         0.0784 
     96 H96        20.7253    0.8681   -1.7189 H         1 UNK         0.0793 
     97 H97        20.2569   -0.0210   -3.1612 H         1 UNK         0.0793 
     98 H98        20.1426   -0.7807   -1.5728 H         1 UNK         0.0793 
     99 H99        21.4088   -2.1675   -3.5654 H         1 UNK         0.3024 
    100 H100       22.5352   -4.8960   -3.0851 H         1 UNK         0.1171 
    101 H101       22.3410   -4.8150   -5.6089 H         1 UNK         0.0786 
    102 H102       22.7199   -3.0996   -5.5741 H         1 UNK         0.0786 
    103 H103       21.2484   -3.7054   -4.8152 H         1 UNK         0.0786 
    104 H104       24.5905   -5.5785   -3.5109 H         1 UNK         0.2977 
    105 H105       29.1470    2.2206   -4.3406 H         1 UNK         0.3127 
    106 H106       30.8765    1.5552   -6.4525 H         1 UNK         0.0770 
    107 H107       29.9482    4.2829   -5.4015 H         1 UNK         0.0814 
    108 H108       31.3042    4.0472   -6.4907 H         1 UNK         0.0814 
    109 H109       31.3682    3.3778   -4.8705 H         1 UNK         0.0814 
    110 H110       27.5522    2.7251   -6.6283 H         1 UNK         0.2983 
    111 H111       27.6886    3.6004   -9.3788 H         1 UNK         0.0947 
    112 H112       25.1908    3.5886   -9.2046 H         1 UNK         0.0806 
    113 H113       25.9391    4.4444   -7.8673 H         1 UNK         0.0806 
    114 H114       25.2983    2.8242   -7.6265 H         1 UNK         0.0806 
    115 H115       27.6112    0.4472   -7.9529 H         1 UNK         0.3000 
    116 H116       26.9318   -0.8108  -10.5924 H         1 UNK         0.0850 
    117 H117       26.4459   -2.8566   -9.2488 H         1 UNK         0.0810 
    118 H118       25.3810   -1.5343   -8.8302 H         1 UNK         0.0810 
    119 H119       26.7161   -1.9595   -7.7571 H         1 UNK         0.0810 
    120 H120       29.1562   -0.8994   -7.7561 H         1 UNK         0.3040 
    121 H121       30.8772   -2.8868   -8.9282 H         1 UNK         0.0766 
    122 H122       32.2272   -2.4645   -6.8607 H         1 UNK         0.0812 
    123 H123       30.5276   -2.6951   -6.4855 H         1 UNK         0.0812 
    124 H124       31.2178   -1.0779   -6.4783 H         1 UNK         0.0812 
    125 H125       30.8124    0.5834   -9.2460 H         1 UNK         0.3205 
    126 H126       32.0502    2.0901  -10.2457 H         1 UNK         0.0754 
    127 H127       33.5202    1.5162  -12.1145 H         1 UNK         0.0769 
    128 H128       32.1065    0.4778  -12.1665 H         1 UNK         0.0769 
    129 H129       33.6462   -0.1518  -11.5815 H         1 UNK         0.0769 
    130 H130       32.9292    0.9009   -7.6085 H         1 UNK         0.2981 
    131 H131       35.7729    1.4125   -7.4630 H         1 UNK         0.0541 
    132 H132       33.3586    3.7223   -7.7588 H         1 UNK         0.3459 
    133 H133       34.1453    4.9797   -6.8370 H         1 UNK         0.3459 
    134 H134       35.4917    0.9286   -5.0186 H         1 UNK         0.0612 
    135 H135       34.9548   -0.3424   -6.0780 H         1 UNK         0.0612 
    136 H136       34.2045   -1.1223   -3.7466 H         1 UNK         0.0624 
    137 H137       33.9056    0.2581   -2.7178 H         1 UNK         0.0624 
@<TRIPOS>BOND
     1    1    2 1    
     2    1   72 1    
     3    1   73 1    
     4    1   74 1    
     5    2    3 2    
     6    2    4 am   BACKBONE|DICT|INTERRES
     7    4    5 1    
     8    4   75 1    
     9    5    6 1    
    10    5   35 1    
    11    5   76 1    
    12    6    7 1    
    13    6   77 1    
    14    6   78 1    
    15    7    8 1    
    16    8    9 1    
    17    8   79 1    
    18    8   80 1    
    19    9   10 ar   
    20    9   14 ar   
    21   10   11 ar   
    22   10   81 1    
    23   11   12 ar   
    24   11   71 1    
    25   12   13 ar   
    26   12   82 1    
    27   13   14 ar   
    28   13   15 1    
    29   14   83 1    
    30   15   16 1    
    31   15   84 1    
    32   15   85 1    
    33   16   17 1    
    34   17   18 1    
    35   17   86 1    
    36   17   87 1    
    37   18   19 1    
    38   18   37 1    
    39   18   88 1    
    40   19   20 am   BACKBONE|DICT|INTERRES
    41   19   89 1    
    42   20   21 2    
    43   20   22 1    
    44   22   23 1    
    45   22   24 1    
    46   22   90 1    
    47   23   91 1    
    48   23   92 1    
    49   23   93 1    
    50   24   25 am   BACKBONE|DICT|INTERRES
    51   24   94 1    
    52   25   26 2    
    53   25   27 1    
    54   27   28 1    
    55   27   29 1    
    56   27   95 1    
    57   28   96 1    
    58   28   97 1    
    59   28   98 1    
    60   29   30 am   BACKBONE|DICT|INTERRES
    61   29   99 1    
    62   30   31 2    
    63   30   32 1    
    64   32   33 1    
    65   32   34 1    
    66   32  100 1    
    67   33  101 1    
    68   33  102 1    
    69   33  103 1    
    70   34   35 am   BACKBONE|DICT|INTERRES
    71   34  104 1    
    72   35   36 2    
    73   37   38 2    
    74   37   39 am   BACKBONE|DICT|INTERRES
    75   39   40 1    
    76   39  105 1    
    77   40   41 1    
    78   40   42 1    
    79   40  106 1    
    80   41  107 1    
    81   41  108 1    
    82   41  109 1    
    83   42   43 2    
    84   42   44 am   BACKBONE|DICT|INTERRES
    85   44   45 1    
    86   44  110 1    
    87   45   46 1    
    88   45   47 1    
    89   45  111 1    
    90   46  112 1    
    91   46  113 1    
    92   46  114 1    
    93   47   48 2    
    94   47   49 am   BACKBONE|DICT|INTERRES
    95   49   50 1    
    96   49  115 1    
    97   50   51 1    
    98   50   52 1    
    99   50  116 1    
   100   51  117 1    
   101   51  118 1    
   102   51  119 1    
   103   52   53 2    
   104   52   54 am   BACKBONE|DICT|INTERRES
   105   54   55 1    
   106   54  120 1    
   107   55   56 1    
   108   55   57 1    
   109   55  121 1    
   110   56  122 1    
   111   56  123 1    
   112   56  124 1    
   113   57   58 2    
   114   57   59 am   BACKBONE|DICT|INTERRES
   115   59   60 1    
   116   59  125 1    
   117   60   61 1    
   118   60   62 1    
   119   60  126 1    
   120   61  127 1    
   121   61  128 1    
   122   61  129 1    
   123   62   63 2    
   124   62   64 am   BACKBONE|DICT|INTERRES
   125   64   65 1    
   126   64  130 1    
   127   65   66 1    
   128   65   69 1    
   129   65  131 1    
   130   66   67 am   BACKBONE|DICT|INTERRES
   131   66   68 2    
   132   67  132 1    
   133   67  133 1    
   134   69   70 1    
   135   69  134 1    
   136   69  135 1    
   137   70   71 1    
   138   71  136 1    
   139   71  137 1    
@<TRIPOS>SUBSTRUCTURE
     1 UNK         1 GROUP             0       ****    0 ROOT    
