@<TRIPOS>MOLECULE
3R137
137   139    1
SMALL
USER_CHARGES


@<TRIPOS>ATOM
      1 CA         24.3358   -6.3280   -3.9870 C.3       0 UNK        -0.2020 
      2 C          24.8838   -5.4794   -2.8495 C.2       0 UNK         0.4855 
      3 O          24.1316   -4.7239   -2.2321 O.2       0 UNK        -0.5197 
      4 N          26.1888   -5.5992   -2.5678 N.am      1 UNK        -0.4892 
      5 CA         26.9109   -4.8414   -1.5398 C.3       1 UNK         0.0835 
      6 C6         28.3677   -5.3502   -1.3995 C.3       12 UNK        -0.0855 
      7 S7         29.2000   -4.7172    0.0994 S.3       12 UNK        -0.2931 
      8 C8         30.8695   -4.3085   -0.5210 C.3       12 UNK         0.0378 
      9 C9         30.8522   -3.2785   -1.6446 C.ar      12 UNK        -0.0802 
     10 C10        31.4112   -3.5850   -2.8896 C.ar      12 UNK        -0.0944 
     11 C11        31.3651   -2.6590   -3.9356 C.ar      12 UNK        -0.0787 
     12 C12        30.7531   -1.4200   -3.7307 C.ar      12 UNK        -0.0862 
     13 C13        30.1947   -1.0962   -2.4881 C.ar      12 UNK        -0.0733 
     14 C14        30.2622   -2.0267   -1.4472 C.ar      12 UNK        -0.0832 
     15 C15        29.4267    0.2018   -2.2693 C.3       12 UNK         0.0240 
     16 S16        30.0675    1.6276   -3.2035 S.3       12 UNK        -0.2522 
     17 C17        28.5083    2.4429   -3.6814 C.3       12 UNK        -0.0967 
     18 CA         28.0509    2.0121   -5.0960 C.3       5 UNK         0.0660 
     19 N          27.6511    0.6021   -5.1781 N.am      5 UNK        -0.4015 
     20 C          27.6630   -0.1093   -6.3152 C.2       4 UNK         0.4946 
     21 O          28.0949    0.3279   -7.3818 O.2       4 UNK        -0.5353 
     22 CA         27.0591   -1.5252   -6.2845 C.3       4 UNK         0.0277 
     23 CB         28.1449   -2.5887   -6.0687 C.3       4 UNK        -0.1981 
     24 N          26.0090   -1.6798   -5.2750 N.am      4 UNK        -0.4209 
     25 C          24.8023   -1.0992   -5.3659 C.2       3 UNK         0.4942 
     26 O          24.4568   -0.4150   -6.3272 O.2       3 UNK        -0.5208 
     27 CA         23.8273   -1.2521   -4.1843 C.3       3 UNK         0.0250 
     28 CB         22.8220   -2.3793   -4.4620 C.3       3 UNK        -0.1990 
     29 N          24.4815   -1.4820   -2.8948 N.am      3 UNK        -0.4232 
     30 C          25.3466   -0.6374   -2.3132 C.2       2 UNK         0.4993 
     31 O          25.6742    0.4475   -2.8000 O.2       2 UNK        -0.5286 
     32 CA         26.0091   -1.1111   -1.0052 C.3       2 UNK         0.0209 
     33 CB         25.1806   -0.6507    0.2041 C.3       2 UNK        -0.1931 
     34 N          26.2322   -2.5613   -0.9169 N.am      2 UNK        -0.4546 
     35 C          26.8390   -3.3284   -1.8368 C.2       1 UNK         0.5154 
     36 O          27.2756   -2.9016   -2.9073 O.2       1 UNK        -0.5181 
     37 C          26.9252    2.9230   -5.6163 C.2       5 UNK         0.5014 
     38 O          27.2243    3.9089   -6.2895 O.2       5 UNK        -0.5248 
     39 N          25.6590    2.5655   -5.3464 N.am      6 UNK        -0.4434 
     40 CA         24.4779    3.2523   -5.8837 C.3       6 UNK         0.0363 
     41 CB         23.2079    2.7285   -5.1947 C.3       6 UNK        -0.1936 
     42 C          24.3669    3.1233   -7.4148 C.2       6 UNK         0.5081 
     43 O          24.0455    4.1037   -8.0859 O.2       6 UNK        -0.5248 
     44 N          24.6772    1.9298   -7.9402 N.am      7 UNK        -0.4718 
     45 CA         24.7781    1.6377   -9.3738 C.3       7 UNK         0.0273 
     46 CB         24.7320    0.1136   -9.5720 C.3       7 UNK        -0.1935 
     47 C          26.0422    2.2180  -10.0385 C.2       7 UNK         0.5018 
     48 O          26.0983    2.2577  -11.2682 O.2       7 UNK        -0.5186 
     49 N          27.0237    2.6378   -9.2254 N.am      8 UNK        -0.4240 
     50 CA         28.3406    3.1659   -9.5960 C.3       8 UNK         0.0235 
     51 CB         28.2075    4.5270  -10.3118 C.3       8 UNK        -0.2000 
     52 C          29.1840    2.1431  -10.3810 C.2       8 UNK         0.4941 
     53 O          29.7257    2.4681  -11.4395 O.2       8 UNK        -0.5273 
     54 N          29.2771    0.9180   -9.8428 N.am      9 UNK        -0.4262 
     55 CA         30.0372   -0.1964  -10.4188 C.3       9 UNK         0.0264 
     56 CB         29.6867   -1.4916   -9.6692 C.3       9 UNK        -0.1955 
     57 C          31.5602    0.0270  -10.4082 C.2       9 UNK         0.5031 
     58 O          32.2404   -0.4744  -11.3045 O.2       9 UNK        -0.5390 
     59 N          32.0528    0.7730   -9.4049 N.am      10 UNK        -0.4204 
     60 CA         33.4487    1.1814   -9.1951 C.3       10 UNK         0.0237 
     61 CB         33.8655    2.2233  -10.2558 C.3       10 UNK        -0.1985 
     62 C          34.4197   -0.0138   -9.1106 C.2       10 UNK         0.4970 
     63 O          35.3963   -0.0741   -9.8613 O.2       10 UNK        -0.4914 
     64 N          34.1130   -0.9540   -8.2073 N.am      11 UNK        -0.4285 
     65 CA         34.9235   -2.1492   -7.9299 C.3       11 UNK         0.1007 
     66 C          36.3470   -1.8390   -7.3786 C.2       11 UNK         0.5703 
     67 N          37.2873   -2.7600   -7.5447 N.am      11 UNK        -0.7361 
     68 O          36.6010   -0.7930   -6.7825 O.2       11 UNK        -0.4986 
     69 C69        34.1562   -3.1649   -7.0404 C.3       12 UNK        -0.0947 
     70 S70        33.7001   -2.5261   -5.3900 S.3       12 UNK        -0.2240 
     71 C71        31.9509   -3.0059   -5.2950 C.3       12 UNK         0.0194 
     72 H72        24.0265   -5.6933   -4.8164 H         1 UNK         0.0906 
     73 H73        25.0751   -7.0368   -4.3596 H         1 UNK         0.0906 
     74 H74        23.4679   -6.8932   -3.6484 H         1 UNK         0.0906 
     75 H75        26.7565   -6.2154   -3.1319 H         1 UNK         0.3140 
     76 H76        26.3976   -5.0334   -0.5950 H         1 UNK         0.1085 
     77 H77        28.9442   -5.1076   -2.2938 H         1 UNK         0.0836 
     78 H78        28.3743   -6.4391   -1.3295 H         1 UNK         0.0836 
     79 H79        31.3564   -5.2295   -0.8455 H         1 UNK         0.0731 
     80 H80        31.4674   -3.9201    0.3045 H         1 UNK         0.0731 
     81 H81        31.8734   -4.5493   -3.0516 H         1 UNK         0.1312 
     82 H82        30.6917   -0.7201   -4.5523 H         1 UNK         0.1406 
     83 H83        29.8146   -1.7978   -0.4895 H         1 UNK         0.1631 
     84 H84        29.4016    0.4659   -1.2109 H         1 UNK         0.0717 
     85 H85        28.3997    0.0087   -2.5704 H         1 UNK         0.0717 
     86 H86        27.7335    2.2564   -2.9352 H         1 UNK         0.0934 
     87 H87        28.6942    3.5188   -3.6545 H         1 UNK         0.0934 
     88 H88        28.9005    2.1603   -5.7673 H         1 UNK         0.0739 
     89 H89        27.2372    0.1974   -4.3484 H         1 UNK         0.3093 
     90 H90        26.6116   -1.7044   -7.2642 H         1 UNK         0.0818 
     91 H91        27.7304   -3.5950   -6.1276 H         1 UNK         0.0819 
     92 H92        28.9252   -2.5158   -6.8254 H         1 UNK         0.0819 
     93 H93        28.6223   -2.4850   -5.0959 H         1 UNK         0.0819 
     94 H94        26.2585   -2.1969   -4.4352 H         1 UNK         0.3041 
     95 H95        23.2714   -0.3168   -4.0992 H         1 UNK         0.0784 
     96 H96        22.2729   -2.1926   -5.3861 H         1 UNK         0.0793 
     97 H97        23.3186   -3.3435   -4.5683 H         1 UNK         0.0793 
     98 H98        22.0878   -2.4660   -3.6608 H         1 UNK         0.0793 
     99 H99        24.3039   -2.3729   -2.4465 H         1 UNK         0.3024 
    100 H100       26.9852   -0.6322   -0.9393 H         1 UNK         0.1171 
    101 H101       25.6879   -0.8746    1.1428 H         1 UNK         0.0786 
    102 H102       25.0165    0.4277    0.1775 H         1 UNK         0.0786 
    103 H103       24.2005   -1.1290    0.2284 H         1 UNK         0.0786 
    104 H104       25.8808   -3.0102   -0.0832 H         1 UNK         0.2977 
    105 H105       25.4940    1.7577   -4.7596 H         1 UNK         0.3127 
    106 H106       24.5772    4.3139   -5.6468 H         1 UNK         0.0770 
    107 H107       23.0149    1.6840   -5.4378 H         1 UNK         0.0814 
    108 H108       22.3341    3.2990   -5.5121 H         1 UNK         0.0814 
    109 H109       23.2760    2.8162   -4.1102 H         1 UNK         0.0814 
    110 H110       24.8256    1.1454   -7.3085 H         1 UNK         0.2983 
    111 H111       23.9140    2.0780   -9.8760 H         1 UNK         0.0947 
    112 H112       25.5843   -0.3771   -9.1006 H         1 UNK         0.0806 
    113 H113       24.7510   -0.1455  -10.6314 H         1 UNK         0.0806 
    114 H114       23.8229   -0.3151   -9.1497 H         1 UNK         0.0806 
    115 H115       26.8620    2.5471   -8.2317 H         1 UNK         0.3000 
    116 H116       28.8709    3.3410   -8.6585 H         1 UNK         0.0850 
    117 H117       27.6328    5.2334   -9.7126 H         1 UNK         0.0810 
    118 H118       27.7167    4.4311  -11.2808 H         1 UNK         0.0810 
    119 H119       29.1874    4.9726  -10.4871 H         1 UNK         0.0810 
    120 H120       28.7909    0.7308   -8.9642 H         1 UNK         0.3040 
    121 H121       29.7255   -0.3072  -11.4596 H         1 UNK         0.0766 
    122 H122       30.1807   -2.3518  -10.1231 H         1 UNK         0.0812 
    123 H123       28.6139   -1.6851   -9.6864 H         1 UNK         0.0812 
    124 H124       30.0034   -1.4459   -8.6272 H         1 UNK         0.0812 
    125 H125       31.3899    1.1112   -8.7217 H         1 UNK         0.3205 
    126 H126       33.4863    1.6738   -8.2221 H         1 UNK         0.0754 
    127 H127       34.8682    2.6043  -10.0576 H         1 UNK         0.0769 
    128 H128       33.1889    3.0780  -10.2586 H         1 UNK         0.0769 
    129 H129       33.8706    1.7989  -11.2605 H         1 UNK         0.0769 
    130 H130       33.3120   -0.8181   -7.6101 H         1 UNK         0.2981 
    131 H131       35.0753   -2.6315   -8.8978 H         1 UNK         0.0541 
    132 H132       38.2127   -2.5841   -7.1859 H         1 UNK         0.3459 
    133 H133       37.0922   -3.6259   -8.0229 H         1 UNK         0.3459 
    134 H134       33.2531   -3.4836   -7.5633 H         1 UNK         0.0612 
    135 H135       34.7453   -4.0730   -6.9016 H         1 UNK         0.0612 
    136 H136       31.8573   -4.0773   -5.4799 H         1 UNK         0.0624 
    137 H137       31.3941   -2.5031   -6.0873 H         1 UNK         0.0624 
@<TRIPOS>BOND
     1    1    2 1    
     2    1   72 1    
     3    1   73 1    
     4    1   74 1    
     5    2    3 2    
     6    2    4 am   BACKBONE|DICT|INTERRES
     7    4    5 1    
     8    4   75 1    
     9    5    6 1    
    10    5   35 1    
    11    5   76 1    
    12    6    7 1    
    13    6   77 1    
    14    6   78 1    
    15    7    8 1    
    16    8    9 1    
    17    8   79 1    
    18    8   80 1    
    19    9   10 ar   
    20    9   14 ar   
    21   10   11 ar   
    22   10   81 1    
    23   11   12 ar   
    24   11   71 1    
    25   12   13 ar   
    26   12   82 1    
    27   13   14 ar   
    28   13   15 1    
    29   14   83 1    
    30   15   16 1    
    31   15   84 1    
    32   15   85 1    
    33   16   17 1    
    34   17   18 1    
    35   17   86 1    
    36   17   87 1    
    37   18   19 1    
    38   18   37 1    
    39   18   88 1    
    40   19   20 am   BACKBONE|DICT|INTERRES
    41   19   89 1    
    42   20   21 2    
    43   20   22 1    
    44   22   23 1    
    45   22   24 1    
    46   22   90 1    
    47   23   91 1    
    48   23   92 1    
    49   23   93 1    
    50   24   25 am   BACKBONE|DICT|INTERRES
    51   24   94 1    
    52   25   26 2    
    53   25   27 1    
    54   27   28 1    
    55   27   29 1    
    56   27   95 1    
    57   28   96 1    
    58   28   97 1    
    59   28   98 1    
    60   29   30 am   BACKBONE|DICT|INTERRES
    61   29   99 1    
    62   30   31 2    
    63   30   32 1    
    64   32   33 1    
    65   32   34 1    
    66   32  100 1    
    67   33  101 1    
    68   33  102 1    
    69   33  103 1    
    70   34   35 am   BACKBONE|DICT|INTERRES
    71   34  104 1    
    72   35   36 2    
    73   37   38 2    
    74   37   39 am   BACKBONE|DICT|INTERRES
    75   39   40 1    
    76   39  105 1    
    77   40   41 1    
    78   40   42 1    
    79   40  106 1    
    80   41  107 1    
    81   41  108 1    
    82   41  109 1    
    83   42   43 2    
    84   42   44 am   BACKBONE|DICT|INTERRES
    85   44   45 1    
    86   44  110 1    
    87   45   46 1    
    88   45   47 1    
    89   45  111 1    
    90   46  112 1    
    91   46  113 1    
    92   46  114 1    
    93   47   48 2    
    94   47   49 am   BACKBONE|DICT|INTERRES
    95   49   50 1    
    96   49  115 1    
    97   50   51 1    
    98   50   52 1    
    99   50  116 1    
   100   51  117 1    
   101   51  118 1    
   102   51  119 1    
   103   52   53 2    
   104   52   54 am   BACKBONE|DICT|INTERRES
   105   54   55 1    
   106   54  120 1    
   107   55   56 1    
   108   55   57 1    
   109   55  121 1    
   110   56  122 1    
   111   56  123 1    
   112   56  124 1    
   113   57   58 2    
   114   57   59 am   BACKBONE|DICT|INTERRES
   115   59   60 1    
   116   59  125 1    
   117   60   61 1    
   118   60   62 1    
   119   60  126 1    
   120   61  127 1    
   121   61  128 1    
   122   61  129 1    
   123   62   63 2    
   124   62   64 am   BACKBONE|DICT|INTERRES
   125   64   65 1    
   126   64  130 1    
   127   65   66 1    
   128   65   69 1    
   129   65  131 1    
   130   66   67 am   BACKBONE|DICT|INTERRES
   131   66   68 2    
   132   67  132 1    
   133   67  133 1    
   134   69   70 1    
   135   69  134 1    
   136   69  135 1    
   137   70   71 1    
   138   71  136 1    
   139   71  137 1    
@<TRIPOS>SUBSTRUCTURE
     1 UNK         1 GROUP             0       ****    0 ROOT    
