@<TRIPOS>MOLECULE
3R137
137   139    1
SMALL
USER_CHARGES


@<TRIPOS>ATOM
      1 CA         29.3972    1.7306   -1.2177 C.3       0 UNK        -0.2020 
      2 C          29.0395    0.3098   -1.6265 C.2       0 UNK         0.4855 
      3 O          28.9359    0.0279   -2.8199 O.2       0 UNK        -0.5197 
      4 N          28.8584   -0.5862   -0.6476 N.am      1 UNK        -0.4892 
      5 CA         28.4474   -1.9744   -0.8754 C.3       1 UNK         0.0835 
      6 C6         28.7913   -2.9077    0.3144 C.3       12 UNK        -0.0855 
      7 S7         30.5671   -2.9278    0.7358 S.3       12 UNK        -0.2931 
      8 C8         31.1807   -4.3192   -0.2716 C.3       12 UNK         0.0378 
      9 C9         31.1647   -3.9834   -1.7559 C.ar      12 UNK        -0.0802 
     10 C10        32.0334   -3.0097   -2.2552 C.ar      12 UNK        -0.0944 
     11 C11        32.0000   -2.6576   -3.6049 C.ar      12 UNK        -0.0787 
     12 C12        31.1146   -3.3113   -4.4649 C.ar      12 UNK        -0.0862 
     13 C13        30.2025   -4.2551   -3.9750 C.ar      12 UNK        -0.0733 
     14 C14        30.2557   -4.6045   -2.6201 C.ar      12 UNK        -0.0832 
     15 C15        29.1341   -4.9036   -4.8617 C.3       12 UNK         0.0240 
     16 S16        28.6711   -3.9862   -6.3789 S.3       12 UNK        -0.2522 
     17 C17        28.2315   -2.3298   -5.7512 C.3       12 UNK        -0.0967 
     18 CA         27.5070   -1.4824   -6.8278 C.3       5 UNK         0.0660 
     19 N          26.0811   -1.8068   -6.9290 N.am      5 UNK        -0.4015 
     20 C          25.2514   -1.3468   -7.8767 C.2       4 UNK         0.4946 
     21 O          25.6028   -0.6226   -8.8071 O.2       4 UNK        -0.5353 
     22 CA         23.7675   -1.7266   -7.7413 C.3       4 UNK         0.0277 
     23 CB         23.5206   -3.1520   -8.2611 C.3       4 UNK        -0.1981 
     24 N          23.2790   -1.6086   -6.3652 N.am      4 UNK        -0.4209 
     25 C          23.1771   -0.4507   -5.6959 C.2       3 UNK         0.4942 
     26 O          23.4326    0.6494   -6.1837 O.2       3 UNK        -0.5208 
     27 CA         22.7760   -0.5406   -4.2127 C.3       3 UNK         0.0250 
     28 CB         21.2478   -0.6196   -4.0682 C.3       3 UNK        -0.1990 
     29 N          23.4013   -1.6591   -3.4943 N.am      3 UNK        -0.4232 
     30 C          24.7238   -1.8551   -3.3987 C.2       2 UNK         0.4993 
     31 O          25.5594   -1.1425   -3.9573 O.2       2 UNK        -0.5286 
     32 CA         25.1897   -3.0867   -2.6040 C.3       2 UNK         0.0209 
     33 CB         25.1246   -4.3442   -3.4880 C.3       2 UNK        -0.1931 
     34 N          26.5618   -2.9296   -2.1130 N.am      2 UNK        -0.4546 
     35 C          26.9401   -2.0414   -1.1843 C.2       1 UNK         0.5154 
     36 O          26.1529   -1.3297   -0.5533 O.2       1 UNK        -0.5181 
     37 C          27.7328    0.0213   -6.5856 C.2       5 UNK         0.5014 
     38 O          28.5840    0.6155   -7.2512 O.2       5 UNK        -0.5248 
     39 N          26.9555    0.6055   -5.6644 N.am      6 UNK        -0.4434 
     40 CA         26.9679    2.0313   -5.3432 C.3       6 UNK         0.0363 
     41 CB         26.0849    2.2882   -4.1120 C.3       6 UNK        -0.1936 
     42 C          26.5325    2.9082   -6.5289 C.2       6 UNK         0.5081 
     43 O          27.1849    3.9159   -6.8006 O.2       6 UNK        -0.5248 
     44 N          25.4632    2.5006   -7.2290 N.am      7 UNK        -0.4718 
     45 CA         24.9477    3.1748   -8.4242 C.3       7 UNK         0.0273 
     46 CB         23.5786    2.5875   -8.8023 C.3       7 UNK        -0.1935 
     47 C          25.9130    3.1070   -9.6189 C.2       7 UNK         0.5018 
     48 O          26.0871    4.1114  -10.3101 O.2       7 UNK        -0.5186 
     49 N          26.5281    1.9361   -9.8365 N.am      8 UNK        -0.4240 
     50 CA         27.5109    1.7054  -10.8988 C.3       8 UNK         0.0235 
     51 CB         27.6704    0.1913  -11.1152 C.3       8 UNK        -0.2000 
     52 C          28.8855    2.3407  -10.6244 C.2       8 UNK         0.4941 
     53 O          29.6523    2.5130  -11.5728 O.2       8 UNK        -0.5273 
     54 N          29.1831    2.6360   -9.3486 N.am      9 UNK        -0.4262 
     55 CA         30.4930    3.0204   -8.8059 C.3       9 UNK         0.0264 
     56 CB         30.9547    4.3888   -9.3512 C.3       9 UNK        -0.1955 
     57 C          31.5226    1.8921   -9.0137 C.2       9 UNK         0.5031 
     58 O          32.6047    2.1188   -9.5608 O.2       9 UNK        -0.5390 
     59 N          31.1220    0.6789   -8.6135 N.am      10 UNK        -0.4204 
     60 CA         31.8654   -0.5688   -8.7876 C.3       10 UNK         0.0237 
     61 CB         30.8870   -1.7379   -8.5752 C.3       10 UNK        -0.1985 
     62 C          33.0828   -0.6939   -7.8515 C.2       10 UNK         0.4970 
     63 O          33.2939    0.1502   -6.9799 O.2       10 UNK        -0.4914 
     64 N          33.8426   -1.7761   -8.0600 N.am      11 UNK        -0.4285 
     65 CA         34.9751   -2.2731   -7.2577 C.3       11 UNK         0.1007 
     66 C          36.2409   -1.3647   -7.1657 C.2       11 UNK         0.5703 
     67 N          36.2771   -0.1996   -7.8000 N.am      11 UNK        -0.7361 
     68 O          37.2356   -1.7535   -6.5575 O.2       11 UNK        -0.4986 
     69 C69        34.5206   -2.9449   -5.9199 C.3       12 UNK        -0.0947 
     70 S70        34.5848   -1.9333   -4.3973 S.3       12 UNK        -0.2240 
     71 C71        32.8421   -1.4979   -4.1122 C.3       12 UNK         0.0194 
     72 H72        28.6482    2.4271   -1.5936 H         1 UNK         0.0906 
     73 H73        30.3631    2.0089   -1.6385 H         1 UNK         0.0906 
     74 H74        29.4530    1.8427   -0.1350 H         1 UNK         0.0906 
     75 H75        28.9413   -0.3059    0.3189 H         1 UNK         0.3140 
     76 H76        28.9819   -2.3271   -1.7581 H         1 UNK         0.1085 
     77 H77        28.4701   -3.9304    0.1066 H         1 UNK         0.0836 
     78 H78        28.2431   -2.5995    1.2071 H         1 UNK         0.0836 
     79 H79        32.2038   -4.5486    0.0301 H         1 UNK         0.0731 
     80 H80        30.5924   -5.2137   -0.0612 H         1 UNK         0.0731 
     81 H81        32.7100   -2.4986   -1.5837 H         1 UNK         0.1312 
     82 H82        31.1060   -3.0383   -5.5098 H         1 UNK         0.1406 
     83 H83        29.5689   -5.3440   -2.2303 H         1 UNK         0.1631 
     84 H84        28.2252   -5.0645   -4.2805 H         1 UNK         0.0717 
     85 H85        29.4872   -5.8926   -5.1563 H         1 UNK         0.0717 
     86 H86        27.6299   -2.4258   -4.8476 H         1 UNK         0.0934 
     87 H87        29.1492   -1.8336   -5.4339 H         1 UNK         0.0934 
     88 H88        27.9514   -1.7008   -7.8010 H         1 UNK         0.0739 
     89 H89        25.6944   -2.3506   -6.1736 H         1 UNK         0.3093 
     90 H90        23.1929   -1.0342   -8.3607 H         1 UNK         0.0818 
     91 H91        23.8655   -3.2548   -9.2911 H         1 UNK         0.0819 
     92 H92        24.0453   -3.9004   -7.6660 H         1 UNK         0.0819 
     93 H93        22.4588   -3.3990   -8.2517 H         1 UNK         0.0819 
     94 H94        23.0379   -2.4633   -5.8853 H         1 UNK         0.3041 
     95 H95        23.1144    0.3798   -3.7320 H         1 UNK         0.0784 
     96 H96        20.7643    0.2125   -4.5825 H         1 UNK         0.0793 
     97 H97        20.8466   -1.5414   -4.4913 H         1 UNK         0.0793 
     98 H98        20.9446   -0.5697   -3.0222 H         1 UNK         0.0793 
     99 H99        22.7766   -2.2974   -3.0220 H         1 UNK         0.3024 
    100 H100       24.5305   -3.2154   -1.7424 H         1 UNK         0.1171 
    101 H101       24.1079   -4.5281   -3.8378 H         1 UNK         0.0786 
    102 H102       25.7606   -4.2552   -4.3697 H         1 UNK         0.0786 
    103 H103       25.4376   -5.2321   -2.9381 H         1 UNK         0.0786 
    104 H104       27.2710   -3.4660   -2.5879 H         1 UNK         0.2977 
    105 H105       26.3366    0.0151   -5.1085 H         1 UNK         0.3127 
    106 H106       27.9951    2.2998   -5.0870 H         1 UNK         0.0770 
    107 H107       25.0438    2.0242   -4.3001 H         1 UNK         0.0814 
    108 H108       26.1108    3.3401   -3.8252 H         1 UNK         0.0814 
    109 H109       26.4259    1.7070   -3.2546 H         1 UNK         0.0814 
    110 H110       24.9454    1.6869   -6.9066 H         1 UNK         0.2983 
    111 H111       24.8075    4.2292   -8.1761 H         1 UNK         0.0947 
    112 H112       23.1727    3.0775   -9.6883 H         1 UNK         0.0806 
    113 H113       22.8552    2.7215   -7.9979 H         1 UNK         0.0806 
    114 H114       23.6434    1.5202   -9.0180 H         1 UNK         0.0806 
    115 H115       26.2784    1.1327   -9.2636 H         1 UNK         0.3000 
    116 H116       27.1267    2.1437  -11.8224 H         1 UNK         0.0850 
    117 H117       28.3785   -0.0197  -11.9177 H         1 UNK         0.0810 
    118 H118       26.7225   -0.2723  -11.3892 H         1 UNK         0.0810 
    119 H119       28.0375   -0.3050  -10.2158 H         1 UNK         0.0810 
    120 H120       28.4856    2.4053   -8.6511 H         1 UNK         0.3040 
    121 H121       30.3588    3.1230   -7.7278 H         1 UNK         0.0766 
    122 H122       31.1621    4.3549  -10.4210 H         1 UNK         0.0812 
    123 H123       31.8701    4.7135   -8.8555 H         1 UNK         0.0812 
    124 H124       30.2012    5.1573   -9.1791 H         1 UNK         0.0812 
    125 H125       30.2233    0.6123   -8.1384 H         1 UNK         0.3205 
    126 H126       32.2303   -0.6006   -9.8164 H         1 UNK         0.0754 
    127 H127       31.3547   -2.7028   -8.7733 H         1 UNK         0.0769 
    128 H128       30.0268   -1.6610   -9.2404 H         1 UNK         0.0769 
    129 H129       30.5172   -1.7602   -7.5506 H         1 UNK         0.0769 
    130 H130       33.5999   -2.3700   -8.8395 H         1 UNK         0.2981 
    131 H131       35.3338   -3.0976   -7.8751 H         1 UNK         0.0541 
    132 H132       37.1095    0.3658   -7.7498 H         1 UNK         0.3459 
    133 H133       35.4553    0.1462   -8.2697 H         1 UNK         0.3459 
    134 H134       35.1728   -3.7984   -5.7285 H         1 UNK         0.0612 
    135 H135       33.5261   -3.3775   -6.0299 H         1 UNK         0.0612 
    136 H136       32.8068   -0.6882   -3.3819 H         1 UNK         0.0624 
    137 H137       32.4010   -1.0929   -5.0200 H         1 UNK         0.0624 
@<TRIPOS>BOND
     1    1    2 1    
     2    1   72 1    
     3    1   73 1    
     4    1   74 1    
     5    2    3 2    
     6    2    4 am   BACKBONE|DICT|INTERRES
     7    4    5 1    
     8    4   75 1    
     9    5    6 1    
    10    5   35 1    
    11    5   76 1    
    12    6    7 1    
    13    6   77 1    
    14    6   78 1    
    15    7    8 1    
    16    8    9 1    
    17    8   79 1    
    18    8   80 1    
    19    9   10 ar   
    20    9   14 ar   
    21   10   11 ar   
    22   10   81 1    
    23   11   12 ar   
    24   11   71 1    
    25   12   13 ar   
    26   12   82 1    
    27   13   14 ar   
    28   13   15 1    
    29   14   83 1    
    30   15   16 1    
    31   15   84 1    
    32   15   85 1    
    33   16   17 1    
    34   17   18 1    
    35   17   86 1    
    36   17   87 1    
    37   18   19 1    
    38   18   37 1    
    39   18   88 1    
    40   19   20 am   BACKBONE|DICT|INTERRES
    41   19   89 1    
    42   20   21 2    
    43   20   22 1    
    44   22   23 1    
    45   22   24 1    
    46   22   90 1    
    47   23   91 1    
    48   23   92 1    
    49   23   93 1    
    50   24   25 am   BACKBONE|DICT|INTERRES
    51   24   94 1    
    52   25   26 2    
    53   25   27 1    
    54   27   28 1    
    55   27   29 1    
    56   27   95 1    
    57   28   96 1    
    58   28   97 1    
    59   28   98 1    
    60   29   30 am   BACKBONE|DICT|INTERRES
    61   29   99 1    
    62   30   31 2    
    63   30   32 1    
    64   32   33 1    
    65   32   34 1    
    66   32  100 1    
    67   33  101 1    
    68   33  102 1    
    69   33  103 1    
    70   34   35 am   BACKBONE|DICT|INTERRES
    71   34  104 1    
    72   35   36 2    
    73   37   38 2    
    74   37   39 am   BACKBONE|DICT|INTERRES
    75   39   40 1    
    76   39  105 1    
    77   40   41 1    
    78   40   42 1    
    79   40  106 1    
    80   41  107 1    
    81   41  108 1    
    82   41  109 1    
    83   42   43 2    
    84   42   44 am   BACKBONE|DICT|INTERRES
    85   44   45 1    
    86   44  110 1    
    87   45   46 1    
    88   45   47 1    
    89   45  111 1    
    90   46  112 1    
    91   46  113 1    
    92   46  114 1    
    93   47   48 2    
    94   47   49 am   BACKBONE|DICT|INTERRES
    95   49   50 1    
    96   49  115 1    
    97   50   51 1    
    98   50   52 1    
    99   50  116 1    
   100   51  117 1    
   101   51  118 1    
   102   51  119 1    
   103   52   53 2    
   104   52   54 am   BACKBONE|DICT|INTERRES
   105   54   55 1    
   106   54  120 1    
   107   55   56 1    
   108   55   57 1    
   109   55  121 1    
   110   56  122 1    
   111   56  123 1    
   112   56  124 1    
   113   57   58 2    
   114   57   59 am   BACKBONE|DICT|INTERRES
   115   59   60 1    
   116   59  125 1    
   117   60   61 1    
   118   60   62 1    
   119   60  126 1    
   120   61  127 1    
   121   61  128 1    
   122   61  129 1    
   123   62   63 2    
   124   62   64 am   BACKBONE|DICT|INTERRES
   125   64   65 1    
   126   64  130 1    
   127   65   66 1    
   128   65   69 1    
   129   65  131 1    
   130   66   67 am   BACKBONE|DICT|INTERRES
   131   66   68 2    
   132   67  132 1    
   133   67  133 1    
   134   69   70 1    
   135   69  134 1    
   136   69  135 1    
   137   70   71 1    
   138   71  136 1    
   139   71  137 1    
@<TRIPOS>SUBSTRUCTURE
     1 UNK         1 GROUP             0       ****    0 ROOT    
