@<TRIPOS>MOLECULE
3R137
137   139    1
SMALL
USER_CHARGES


@<TRIPOS>ATOM
      1 CA         25.5557   -5.2886    1.2068 C.3       0 UNK        -0.2020 
      2 C          25.9539   -4.1059    0.3379 C.2       0 UNK         0.4855 
      3 O          25.5682   -4.0457   -0.8284 O.2       0 UNK        -0.5197 
      4 N          26.7022   -3.1458    0.9014 N.am      1 UNK        -0.4892 
      5 CA         27.2466   -1.9504    0.2292 C.3       1 UNK         0.0835 
      6 C6         28.2330   -2.3212   -0.9178 C.3       12 UNK        -0.0855 
      7 S7         29.7305   -1.2788   -0.9226 S.3       12 UNK        -0.2931 
      8 C8         30.9721   -2.4380   -1.5791 C.3       12 UNK         0.0378 
      9 C9         30.8323   -2.6217   -3.0837 C.ar      12 UNK        -0.0802 
     10 C10        31.5608   -1.8086   -3.9562 C.ar      12 UNK        -0.0944 
     11 C11        31.4534   -1.9779   -5.3389 C.ar      12 UNK        -0.0787 
     12 C12        30.6161   -2.9734   -5.8501 C.ar      12 UNK        -0.0862 
     13 C13        29.8706   -3.7838   -4.9890 C.ar      12 UNK        -0.0733 
     14 C14        29.9871   -3.6063   -3.6063 C.ar      12 UNK        -0.0832 
     15 C15        28.9503   -4.8617   -5.5437 C.3       12 UNK         0.0240 
     16 S16        27.2858   -4.2178   -5.9131 S.3       12 UNK        -0.2522 
     17 C17        27.4652   -3.6372   -7.6385 C.3       12 UNK        -0.0967 
     18 CA         27.0252   -2.1714   -7.8737 C.3       5 UNK         0.0660 
     19 N          25.6432   -1.9212   -7.4546 N.am      5 UNK        -0.4015 
     20 C          24.9749   -0.7733   -7.6373 C.2       4 UNK         0.4946 
     21 O          25.4335    0.1908   -8.2520 O.2       4 UNK        -0.5353 
     22 CA         23.5838   -0.6482   -6.9932 C.3       4 UNK         0.0277 
     23 CB         22.4898   -0.8790   -8.0477 C.3       4 UNK        -0.1981 
     24 N          23.3425   -1.5268   -5.8406 N.am      4 UNK        -0.4209 
     25 C          24.0640   -1.5558   -4.7102 C.2       3 UNK         0.4942 
     26 O          25.1100   -0.9241   -4.5426 O.2       3 UNK        -0.5208 
     27 CA         23.5453   -2.4950   -3.6080 C.3       3 UNK         0.0250 
     28 CB         24.1754   -3.8883   -3.7577 C.3       3 UNK        -0.1990 
     29 N          23.8183   -1.9853   -2.2619 N.am      3 UNK        -0.4232 
     30 C          23.2956   -0.8600   -1.7467 C.2       2 UNK         0.4993 
     31 O          22.4696   -0.1628   -2.3386 O.2       2 UNK        -0.5286 
     32 CA         23.7291   -0.4416   -0.3267 C.3       2 UNK         0.0209 
     33 CB         22.5770   -0.6450    0.6722 C.3       2 UNK        -0.1931 
     34 N          24.9045   -1.1677    0.1567 N.am      2 UNK        -0.4546 
     35 C          26.1664   -0.9372   -0.2315 C.2       1 UNK         0.5154 
     36 O          26.4840    0.0282   -0.9263 O.2       1 UNK        -0.5181 
     37 C          28.0319   -1.1572   -7.2930 C.2       5 UNK         0.5014 
     38 O          28.9833   -0.8050   -7.9912 O.2       5 UNK        -0.5248 
     39 N          27.7769   -0.6528   -6.0752 N.am      6 UNK        -0.4434 
     40 CA         28.5822    0.3835   -5.4252 C.3       6 UNK         0.0363 
     41 CB         28.1058    0.5675   -3.9778 C.3       6 UNK        -0.1936 
     42 C          28.5818    1.7265   -6.1760 C.2       6 UNK         0.5081 
     43 O          29.5566    2.4698   -6.0706 O.2       6 UNK        -0.5248 
     44 N          27.5113    2.0054   -6.9315 N.am      7 UNK        -0.4718 
     45 CA         27.4078    3.1608   -7.8192 C.3       7 UNK         0.0273 
     46 CB         25.9662    3.6960   -7.7968 C.3       7 UNK        -0.1935 
     47 C          27.8298    2.7947   -9.2494 C.2       7 UNK         0.5018 
     48 O          28.5826    3.5501   -9.8639 O.2       7 UNK        -0.5186 
     49 N          27.3288    1.6587   -9.7580 N.am      8 UNK        -0.4240 
     50 CA         27.4993    1.2253  -11.1466 C.3       8 UNK         0.0235 
     51 CB         26.5135    0.0892  -11.4634 C.3       8 UNK        -0.2000 
     52 C          28.9371    0.8191  -11.5061 C.2       8 UNK         0.4941 
     53 O          29.4233    1.2313  -12.5603 O.2       8 UNK        -0.5273 
     54 N          29.5908    0.0243  -10.6460 N.am      9 UNK        -0.4262 
     55 CA         30.9788   -0.4082  -10.8420 C.3       9 UNK         0.0264 
     56 CB         31.1772   -1.8180  -10.2599 C.3       9 UNK        -0.1955 
     57 C          31.9847    0.5823  -10.2351 C.2       9 UNK         0.5031 
     58 O          33.1369    0.5999  -10.6710 O.2       9 UNK        -0.5390 
     59 N          31.5432    1.3788   -9.2485 N.am      10 UNK        -0.4204 
     60 CA         32.2511    2.4471   -8.5237 C.3       10 UNK         0.0237 
     61 CB         32.6812    3.5792   -9.4763 C.3       10 UNK        -0.1985 
     62 C          33.4307    1.9817   -7.6481 C.2       10 UNK         0.4970 
     63 O          33.5580    2.4580   -6.5202 O.2       10 UNK        -0.4914 
     64 N          34.2543    1.0634   -8.1667 N.am      11 UNK        -0.4285 
     65 CA         35.4035    0.4209   -7.5043 C.3       11 UNK         0.1007 
     66 C          36.5831    1.3823   -7.1605 C.2       11 UNK         0.5703 
     67 N          36.6708    2.5616   -7.7650 N.am      11 UNK        -0.7361 
     68 O          37.4545    1.0459   -6.3616 O.2       11 UNK        -0.4986 
     69 C69        34.9842   -0.4797   -6.3051 C.3       12 UNK        -0.0947 
     70 S70        33.8006   -1.7862   -6.7835 S.3       12 UNK        -0.2240 
     71 C71        32.2114   -1.0582   -6.2797 C.3       12 UNK         0.0194 
     72 H72        25.9328   -6.2140    0.7726 H         1 UNK         0.0906 
     73 H73        25.9497   -5.2036    2.2193 H         1 UNK         0.0906 
     74 H74        24.4702   -5.3596    1.2690 H         1 UNK         0.0906 
     75 H75        26.9636   -3.2402    1.8743 H         1 UNK         0.3140 
     76 H76        27.8043   -1.4296    1.0095 H         1 UNK         0.1085 
     77 H77        28.5585   -3.3556   -0.8018 H         1 UNK         0.0836 
     78 H78        27.7542   -2.2812   -1.8988 H         1 UNK         0.0836 
     79 H79        30.9002   -3.3986   -1.0668 H         1 UNK         0.0731 
     80 H80        31.9652   -2.0503   -1.3466 H         1 UNK         0.0731 
     81 H81        32.2076   -1.0383   -3.5587 H         1 UNK         0.1312 
     82 H82        30.5342   -3.1019   -6.9202 H         1 UNK         0.1406 
     83 H83        29.4172   -4.2359   -2.9369 H         1 UNK         0.1631 
     84 H84        28.8509   -5.6684   -4.8158 H         1 UNK         0.0717 
     85 H85        29.3870   -5.3183   -6.4330 H         1 UNK         0.0717 
     86 H86        28.4898   -3.7829   -7.9843 H         1 UNK         0.0934 
     87 H87        26.8610   -4.2957   -8.2646 H         1 UNK         0.0934 
     88 H88        27.0409   -2.0151   -8.9528 H         1 UNK         0.0739 
     89 H89        25.2048   -2.6524   -6.9146 H         1 UNK         0.3093 
     90 H90        23.4982    0.3794   -6.6337 H         1 UNK         0.0818 
     91 H91        21.4981   -0.6730   -7.6447 H         1 UNK         0.0819 
     92 H92        22.6296   -0.2201   -8.9063 H         1 UNK         0.0819 
     93 H93        22.4969   -1.9043   -8.4200 H         1 UNK         0.0819 
     94 H94        22.5140   -2.1028   -5.8911 H         1 UNK         0.3041 
     95 H95        22.4622   -2.5894   -3.7107 H         1 UNK         0.0784 
     96 H96        23.9836   -4.3082   -4.7459 H         1 UNK         0.0793 
     97 H97        25.2573   -3.8536   -3.6213 H         1 UNK         0.0793 
     98 H98        23.7715   -4.5871   -3.0248 H         1 UNK         0.0793 
     99 H99        24.4913   -2.5106   -1.7136 H         1 UNK         0.3024 
    100 H100       23.9685    0.6238   -0.3653 H         1 UNK         0.1171 
    101 H101       22.8484   -0.2947    1.6683 H         1 UNK         0.0786 
    102 H102       21.6908   -0.0874    0.3657 H         1 UNK         0.0786 
    103 H103       22.2905   -1.6946    0.7502 H         1 UNK         0.0786 
    104 H104       24.7352   -1.9819    0.7296 H         1 UNK         0.2977 
    105 H105       26.9489   -0.9621   -5.5752 H         1 UNK         0.3127 
    106 H106       29.6134    0.0332   -5.3985 H         1 UNK         0.0770 
    107 H107       27.0769    0.9262   -3.9310 H         1 UNK         0.0814 
    108 H108       28.1566   -0.3700   -3.4247 H         1 UNK         0.0814 
    109 H109       28.7296    1.2882   -3.4479 H         1 UNK         0.0814 
    110 H110       26.7715    1.3165   -6.9968 H         1 UNK         0.2983 
    111 H111       28.0661    3.9600   -7.4706 H         1 UNK         0.0947 
    112 H112       25.6786    4.0119   -6.7939 H         1 UNK         0.0806 
    113 H113       25.2461    2.9477   -8.1300 H         1 UNK         0.0806 
    114 H114       25.8625    4.5626   -8.4512 H         1 UNK         0.0806 
    115 H115       26.6880    1.1103   -9.1863 H         1 UNK         0.3000 
    116 H116       27.2363    2.0739  -11.7822 H         1 UNK         0.0850 
    117 H117       26.5786   -0.2016  -12.5128 H         1 UNK         0.0810 
    118 H118       25.4837    0.3931  -11.2745 H         1 UNK         0.0810 
    119 H119       26.7132   -0.7999  -10.8674 H         1 UNK         0.0810 
    120 H120       29.1460   -0.2626   -9.7764 H         1 UNK         0.3040 
    121 H121       31.1913   -0.4678  -11.9118 H         1 UNK         0.0766 
    122 H122       31.0229   -1.8453   -9.1828 H         1 UNK         0.0812 
    123 H123       32.1904   -2.1758  -10.4478 H         1 UNK         0.0812 
    124 H124       30.4917   -2.5336  -10.7137 H         1 UNK         0.0812 
    125 H125       30.5874    1.2337   -8.9541 H         1 UNK         0.3205 
    126 H126       31.5119    2.8684   -7.8413 H         1 UNK         0.0754 
    127 H127       33.1200    4.4093   -8.9212 H         1 UNK         0.0769 
    128 H128       31.8273    3.9739  -10.0277 H         1 UNK         0.0769 
    129 H129       33.4233    3.2455  -10.2020 H         1 UNK         0.0769 
    130 H130       34.0630    0.7633   -9.1205 H         1 UNK         0.2981 
    131 H131       35.8222   -0.2424   -8.2616 H         1 UNK         0.0541 
    132 H132       35.9721    2.8456   -8.4322 H         1 UNK         0.3459 
    133 H133       37.4420    3.1725   -7.5467 H         1 UNK         0.3459 
    134 H134       34.5835    0.1179   -5.4854 H         1 UNK         0.0612 
    135 H135       35.8569   -0.9914   -5.8962 H         1 UNK         0.0612 
    136 H136       31.6143   -0.8577   -7.1687 H         1 UNK         0.0624 
    137 H137       32.3584   -0.0895   -5.8019 H         1 UNK         0.0624 
@<TRIPOS>BOND
     1    1    2 1    
     2    1   72 1    
     3    1   73 1    
     4    1   74 1    
     5    2    3 2    
     6    2    4 am   BACKBONE|DICT|INTERRES
     7    4    5 1    
     8    4   75 1    
     9    5    6 1    
    10    5   35 1    
    11    5   76 1    
    12    6    7 1    
    13    6   77 1    
    14    6   78 1    
    15    7    8 1    
    16    8    9 1    
    17    8   79 1    
    18    8   80 1    
    19    9   10 ar   
    20    9   14 ar   
    21   10   11 ar   
    22   10   81 1    
    23   11   12 ar   
    24   11   71 1    
    25   12   13 ar   
    26   12   82 1    
    27   13   14 ar   
    28   13   15 1    
    29   14   83 1    
    30   15   16 1    
    31   15   84 1    
    32   15   85 1    
    33   16   17 1    
    34   17   18 1    
    35   17   86 1    
    36   17   87 1    
    37   18   19 1    
    38   18   37 1    
    39   18   88 1    
    40   19   20 am   BACKBONE|DICT|INTERRES
    41   19   89 1    
    42   20   21 2    
    43   20   22 1    
    44   22   23 1    
    45   22   24 1    
    46   22   90 1    
    47   23   91 1    
    48   23   92 1    
    49   23   93 1    
    50   24   25 am   BACKBONE|DICT|INTERRES
    51   24   94 1    
    52   25   26 2    
    53   25   27 1    
    54   27   28 1    
    55   27   29 1    
    56   27   95 1    
    57   28   96 1    
    58   28   97 1    
    59   28   98 1    
    60   29   30 am   BACKBONE|DICT|INTERRES
    61   29   99 1    
    62   30   31 2    
    63   30   32 1    
    64   32   33 1    
    65   32   34 1    
    66   32  100 1    
    67   33  101 1    
    68   33  102 1    
    69   33  103 1    
    70   34   35 am   BACKBONE|DICT|INTERRES
    71   34  104 1    
    72   35   36 2    
    73   37   38 2    
    74   37   39 am   BACKBONE|DICT|INTERRES
    75   39   40 1    
    76   39  105 1    
    77   40   41 1    
    78   40   42 1    
    79   40  106 1    
    80   41  107 1    
    81   41  108 1    
    82   41  109 1    
    83   42   43 2    
    84   42   44 am   BACKBONE|DICT|INTERRES
    85   44   45 1    
    86   44  110 1    
    87   45   46 1    
    88   45   47 1    
    89   45  111 1    
    90   46  112 1    
    91   46  113 1    
    92   46  114 1    
    93   47   48 2    
    94   47   49 am   BACKBONE|DICT|INTERRES
    95   49   50 1    
    96   49  115 1    
    97   50   51 1    
    98   50   52 1    
    99   50  116 1    
   100   51  117 1    
   101   51  118 1    
   102   51  119 1    
   103   52   53 2    
   104   52   54 am   BACKBONE|DICT|INTERRES
   105   54   55 1    
   106   54  120 1    
   107   55   56 1    
   108   55   57 1    
   109   55  121 1    
   110   56  122 1    
   111   56  123 1    
   112   56  124 1    
   113   57   58 2    
   114   57   59 am   BACKBONE|DICT|INTERRES
   115   59   60 1    
   116   59  125 1    
   117   60   61 1    
   118   60   62 1    
   119   60  126 1    
   120   61  127 1    
   121   61  128 1    
   122   61  129 1    
   123   62   63 2    
   124   62   64 am   BACKBONE|DICT|INTERRES
   125   64   65 1    
   126   64  130 1    
   127   65   66 1    
   128   65   69 1    
   129   65  131 1    
   130   66   67 am   BACKBONE|DICT|INTERRES
   131   66   68 2    
   132   67  132 1    
   133   67  133 1    
   134   69   70 1    
   135   69  134 1    
   136   69  135 1    
   137   70   71 1    
   138   71  136 1    
   139   71  137 1    
@<TRIPOS>SUBSTRUCTURE
     1 UNK         1 GROUP             0       ****    0 ROOT    
