@<TRIPOS>MOLECULE
3R137
137   139    1
SMALL
USER_CHARGES


@<TRIPOS>ATOM
      1 CA         26.0293   -5.3536   -1.8104 C.3       0 UNK        -0.2020 
      2 C          26.3834   -4.4268   -0.6572 C.2       0 UNK         0.4855 
      3 O          25.6774   -4.4049    0.3509 O.2       0 UNK        -0.5197 
      4 N          27.4721   -3.6593   -0.7975 N.am      1 UNK        -0.4892 
      5 CA         27.9312   -2.6568    0.1745 C.3       1 UNK         0.0835 
      6 C6         29.4282   -2.2957   -0.0207 C.3       12 UNK        -0.0855 
      7 S7         29.8696   -1.8844   -1.7468 S.3       12 UNK        -0.2931 
      8 C8         30.7857   -3.3803   -2.2358 C.3       12 UNK         0.0378 
      9 C9         30.7146   -3.5831   -3.7391 C.ar      12 UNK        -0.0802 
     10 C10        31.7438   -3.1340   -4.5696 C.ar      12 UNK        -0.0944 
     11 C11        31.6645   -3.2993   -5.9586 C.ar      12 UNK        -0.0787 
     12 C12        30.5388   -3.9298   -6.5038 C.ar      12 UNK        -0.0862 
     13 C13        29.5014   -4.3881   -5.6827 C.ar      12 UNK        -0.0733 
     14 C14        29.6075   -4.2220   -4.2996 C.ar      12 UNK        -0.0832 
     15 C15        28.2768   -5.0734   -6.2898 C.3       12 UNK         0.0240 
     16 S16        26.6910   -4.4964   -5.5799 S.3       12 UNK        -0.2522 
     17 C17        26.7599   -2.7202   -5.9695 C.3       12 UNK        -0.0967 
     18 CA         25.4874   -2.2181   -6.6962 C.3       5 UNK         0.0660 
     19 N          24.3911   -1.9600   -5.7692 N.am      5 UNK        -0.4015 
     20 C          23.0945   -1.9893   -6.1098 C.2       4 UNK         0.4946 
     21 O          22.6750   -2.4570   -7.1697 O.2       4 UNK        -0.5353 
     22 CA         22.0980   -1.3381   -5.1300 C.3       4 UNK         0.0277 
     23 CB         21.5761   -2.3747   -4.1220 C.3       4 UNK        -0.1981 
     24 N          22.6806   -0.2054   -4.4048 N.am      4 UNK        -0.4209 
     25 C          23.1665    0.9086   -4.9737 C.2       3 UNK         0.4942 
     26 O          22.9770    1.2026   -6.1546 O.2       3 UNK        -0.5208 
     27 CA         24.0372    1.8403   -4.1039 C.3       3 UNK         0.0250 
     28 CB         23.3690    3.2175   -3.9492 C.3       3 UNK        -0.1990 
     29 N          24.3890    1.3337   -2.7689 N.am      3 UNK        -0.4232 
     30 C          25.0812    0.2200   -2.4889 C.2       2 UNK         0.4993 
     31 O          25.4647   -0.5911   -3.3377 O.2       2 UNK        -0.5286 
     32 CA         25.3184   -0.0602   -1.0012 C.3       2 UNK         0.0209 
     33 CB         24.0023   -0.4441   -0.2946 C.3       2 UNK        -0.1931 
     34 N          26.2798   -1.1488   -0.8670 N.am      2 UNK        -0.4546 
     35 C          27.0336   -1.3994    0.2102 C.2       1 UNK         0.5154 
     36 O          27.0269   -0.6939    1.2210 O.2       1 UNK        -0.5181 
     37 C          25.7836   -0.8986   -7.4243 C.2       5 UNK         0.5014 
     38 O          26.4155   -0.0188   -6.8386 O.2       5 UNK        -0.5248 
     39 N          25.3872   -0.7938   -8.7001 N.am      6 UNK        -0.4434 
     40 CA         25.7860    0.3139   -9.5806 C.3       6 UNK         0.0363 
     41 CB         25.0362    0.2088  -10.9176 C.3       6 UNK        -0.1936 
     42 C          27.3095    0.3545   -9.8126 C.2       6 UNK         0.5081 
     43 O          27.8856    1.4339   -9.9450 O.2       6 UNK        -0.5248 
     44 N          27.9375   -0.8300   -9.7955 N.am      7 UNK        -0.4718 
     45 CA         29.3833   -1.0300   -9.8703 C.3       7 UNK         0.0273 
     46 CB         29.6712   -2.5242  -10.0822 C.3       7 UNK        -0.1935 
     47 C          30.1623   -0.4974   -8.6545 C.2       7 UNK         0.5018 
     48 O          31.3579   -0.2464   -8.8000 O.2       7 UNK        -0.5186 
     49 N          29.5037   -0.2895   -7.5007 N.am      8 UNK        -0.4240 
     50 CA         30.1359    0.2683   -6.2967 C.3       8 UNK         0.0235 
     51 CB         29.1884    0.1783   -5.0911 C.3       8 UNK        -0.2000 
     52 C          30.6388    1.7078   -6.4996 C.2       8 UNK         0.4941 
     53 O          31.6765    2.0756   -5.9485 O.2       8 UNK        -0.5273 
     54 N          29.9273    2.4775   -7.3359 N.am      9 UNK        -0.4262 
     55 CA         30.3294    3.8149   -7.7728 C.3       9 UNK         0.0264 
     56 CB         29.1154    4.5277   -8.3902 C.3       9 UNK        -0.1955 
     57 C          31.5084    3.8004   -8.7646 C.2       9 UNK         0.5031 
     58 O          32.1924    4.8177   -8.8856 O.2       9 UNK        -0.5390 
     59 N          31.7236    2.6731   -9.4586 N.am      10 UNK        -0.4204 
     60 CA         32.8217    2.4831  -10.4044 C.3       10 UNK         0.0237 
     61 CB         32.3987    1.5122  -11.5207 C.3       10 UNK        -0.1985 
     62 C          34.0910    1.9949   -9.6930 C.2       10 UNK         0.4970 
     63 O          35.1584    2.5618   -9.9318 O.2       10 UNK        -0.4914 
     64 N          33.9662    0.9639   -8.8429 N.am      11 UNK        -0.4285 
     65 CA         35.0937    0.4112   -8.0744 C.3       11 UNK         0.1007 
     66 C          35.5808    1.3110   -6.9009 C.2       11 UNK         0.5703 
     67 N          34.7430    2.1708   -6.3321 N.am      11 UNK        -0.7361 
     68 O          36.7453    1.2385   -6.5148 O.2       11 UNK        -0.4986 
     69 C69        34.8629   -1.0638   -7.6471 C.3       12 UNK        -0.0947 
     70 S70        33.5924   -1.2871   -6.3584 S.3       12 UNK        -0.2240 
     71 C71        32.7956   -2.8427   -6.8821 C.3       12 UNK         0.0194 
     72 H72        25.8161   -6.3549   -1.4372 H         1 UNK         0.0906 
     73 H73        25.1433   -4.9867   -2.3281 H         1 UNK         0.0906 
     74 H74        26.8382   -5.4320   -2.5353 H         1 UNK         0.0906 
     75 H75        28.0107   -3.6949   -1.6504 H         1 UNK         0.3140 
     76 H76        27.8395   -3.1043    1.1671 H         1 UNK         0.1085 
     77 H77        30.0458   -3.1285    0.3192 H         1 UNK         0.0836 
     78 H78        29.7128   -1.4577    0.6191 H         1 UNK         0.0836 
     79 H79        31.8218   -3.2949   -1.9042 H         1 UNK         0.0731 
     80 H80        30.3738   -4.2581   -1.7353 H         1 UNK         0.0731 
     81 H81        32.6061   -2.6537   -4.1287 H         1 UNK         0.1312 
     82 H82        30.4780   -4.0753   -7.5726 H         1 UNK         0.1406 
     83 H83        28.8163   -4.5803   -3.6580 H         1 UNK         0.1631 
     84 H84        28.3621   -6.1486   -6.1284 H         1 UNK         0.0717 
     85 H85        28.2482   -4.9242   -7.3703 H         1 UNK         0.0717 
     86 H86        27.6470   -2.5424   -6.5804 H         1 UNK         0.0934 
     87 H87        26.9257   -2.1668   -5.0433 H         1 UNK         0.0934 
     88 H88        25.1887   -2.9664   -7.4339 H         1 UNK         0.0739 
     89 H89        24.6603   -1.5148   -4.8957 H         1 UNK         0.3093 
     90 H90        21.2543   -0.9637   -5.7136 H         1 UNK         0.0818 
     91 H91        20.8172   -1.9457   -3.4673 H         1 UNK         0.0819 
     92 H92        21.1173   -3.2204   -4.6363 H         1 UNK         0.0819 
     93 H93        22.3772   -2.7700   -3.4958 H         1 UNK         0.0819 
     94 H94        22.8787   -0.3505   -3.4262 H         1 UNK         0.3041 
     95 H95        24.9739    1.9755   -4.6493 H         1 UNK         0.0784 
     96 H96        23.1349    3.6528   -4.9219 H         1 UNK         0.0793 
     97 H97        22.4352    3.1513   -3.3893 H         1 UNK         0.0793 
     98 H98        24.0225    3.9219   -3.4341 H         1 UNK         0.0793 
     99 H99        24.0946    1.9129   -1.9953 H         1 UNK         0.3024 
    100 H100       25.7351    0.8424   -0.5479 H         1 UNK         0.1171 
    101 H101       24.1613   -0.6293    0.7679 H         1 UNK         0.0786 
    102 H102       23.5642   -1.3456   -0.7252 H         1 UNK         0.0786 
    103 H103       23.2595    0.3507   -0.3697 H         1 UNK         0.0786 
    104 H104       26.3818   -1.7245   -1.6934 H         1 UNK         0.2977 
    105 H105       24.8330   -1.5337   -9.1091 H         1 UNK         0.3127 
    106 H106       25.4997    1.2504   -9.0966 H         1 UNK         0.0770 
    107 H107       25.2706   -0.7176  -11.4434 H         1 UNK         0.0814 
    108 H108       25.3032    1.0348  -11.5784 H         1 UNK         0.0814 
    109 H109       23.9566    0.2497  -10.7713 H         1 UNK         0.0814 
    110 H110       27.3725   -1.6606   -9.6982 H         1 UNK         0.2983 
    111 H111       29.7503   -0.4847  -10.7428 H         1 UNK         0.0947 
    112 H112       30.7444   -2.7214  -10.0952 H         1 UNK         0.0806 
    113 H113       29.2701   -2.8717  -11.0344 H         1 UNK         0.0806 
    114 H114       29.2328   -3.1348   -9.2931 H         1 UNK         0.0806 
    115 H115       28.5051   -0.4476   -7.4592 H         1 UNK         0.3000 
    116 H116       31.0017   -0.3502   -6.0678 H         1 UNK         0.0850 
    117 H117       29.6772    0.5462   -4.1879 H         1 UNK         0.0810 
    118 H118       28.8978   -0.8529   -4.8935 H         1 UNK         0.0810 
    119 H119       28.2841    0.7699   -5.2329 H         1 UNK         0.0810 
    120 H120       29.0940    2.0912   -7.7596 H         1 UNK         0.3040 
    121 H121       30.6471    4.3803   -6.8940 H         1 UNK         0.0766 
    122 H122       29.3722    5.5436   -8.6935 H         1 UNK         0.0812 
    123 H123       28.7483    4.0066   -9.2755 H         1 UNK         0.0812 
    124 H124       28.2929    4.6014   -7.6785 H         1 UNK         0.0812 
    125 H125       31.1595    1.8590   -9.2533 H         1 UNK         0.3205 
    126 H126       33.0516    3.4406  -10.8773 H         1 UNK         0.0754 
    127 H127       33.1834    1.4252  -12.2734 H         1 UNK         0.0769 
    128 H128       31.5000    1.8612  -12.0296 H         1 UNK         0.0769 
    129 H129       32.2020    0.5083  -11.1450 H         1 UNK         0.0769 
    130 H130       33.0587    0.5250   -8.7047 H         1 UNK         0.2981 
    131 H131       35.9379    0.3750   -8.7662 H         1 UNK         0.0541 
    132 H132       33.7592    2.1700   -6.5690 H         1 UNK         0.3459 
    133 H133       35.0738    2.7514   -5.5789 H         1 UNK         0.3459 
    134 H134       34.5928   -1.6556   -8.5230 H         1 UNK         0.0612 
    135 H135       35.7940   -1.4949   -7.2753 H         1 UNK         0.0612 
    136 H136       32.4193   -2.7082   -7.8973 H         1 UNK         0.0624 
    137 H137       33.5495   -3.6294   -6.9261 H         1 UNK         0.0624 
@<TRIPOS>BOND
     1    1    2 1    
     2    1   72 1    
     3    1   73 1    
     4    1   74 1    
     5    2    3 2    
     6    2    4 am   BACKBONE|DICT|INTERRES
     7    4    5 1    
     8    4   75 1    
     9    5    6 1    
    10    5   35 1    
    11    5   76 1    
    12    6    7 1    
    13    6   77 1    
    14    6   78 1    
    15    7    8 1    
    16    8    9 1    
    17    8   79 1    
    18    8   80 1    
    19    9   10 ar   
    20    9   14 ar   
    21   10   11 ar   
    22   10   81 1    
    23   11   12 ar   
    24   11   71 1    
    25   12   13 ar   
    26   12   82 1    
    27   13   14 ar   
    28   13   15 1    
    29   14   83 1    
    30   15   16 1    
    31   15   84 1    
    32   15   85 1    
    33   16   17 1    
    34   17   18 1    
    35   17   86 1    
    36   17   87 1    
    37   18   19 1    
    38   18   37 1    
    39   18   88 1    
    40   19   20 am   BACKBONE|DICT|INTERRES
    41   19   89 1    
    42   20   21 2    
    43   20   22 1    
    44   22   23 1    
    45   22   24 1    
    46   22   90 1    
    47   23   91 1    
    48   23   92 1    
    49   23   93 1    
    50   24   25 am   BACKBONE|DICT|INTERRES
    51   24   94 1    
    52   25   26 2    
    53   25   27 1    
    54   27   28 1    
    55   27   29 1    
    56   27   95 1    
    57   28   96 1    
    58   28   97 1    
    59   28   98 1    
    60   29   30 am   BACKBONE|DICT|INTERRES
    61   29   99 1    
    62   30   31 2    
    63   30   32 1    
    64   32   33 1    
    65   32   34 1    
    66   32  100 1    
    67   33  101 1    
    68   33  102 1    
    69   33  103 1    
    70   34   35 am   BACKBONE|DICT|INTERRES
    71   34  104 1    
    72   35   36 2    
    73   37   38 2    
    74   37   39 am   BACKBONE|DICT|INTERRES
    75   39   40 1    
    76   39  105 1    
    77   40   41 1    
    78   40   42 1    
    79   40  106 1    
    80   41  107 1    
    81   41  108 1    
    82   41  109 1    
    83   42   43 2    
    84   42   44 am   BACKBONE|DICT|INTERRES
    85   44   45 1    
    86   44  110 1    
    87   45   46 1    
    88   45   47 1    
    89   45  111 1    
    90   46  112 1    
    91   46  113 1    
    92   46  114 1    
    93   47   48 2    
    94   47   49 am   BACKBONE|DICT|INTERRES
    95   49   50 1    
    96   49  115 1    
    97   50   51 1    
    98   50   52 1    
    99   50  116 1    
   100   51  117 1    
   101   51  118 1    
   102   51  119 1    
   103   52   53 2    
   104   52   54 am   BACKBONE|DICT|INTERRES
   105   54   55 1    
   106   54  120 1    
   107   55   56 1    
   108   55   57 1    
   109   55  121 1    
   110   56  122 1    
   111   56  123 1    
   112   56  124 1    
   113   57   58 2    
   114   57   59 am   BACKBONE|DICT|INTERRES
   115   59   60 1    
   116   59  125 1    
   117   60   61 1    
   118   60   62 1    
   119   60  126 1    
   120   61  127 1    
   121   61  128 1    
   122   61  129 1    
   123   62   63 2    
   124   62   64 am   BACKBONE|DICT|INTERRES
   125   64   65 1    
   126   64  130 1    
   127   65   66 1    
   128   65   69 1    
   129   65  131 1    
   130   66   67 am   BACKBONE|DICT|INTERRES
   131   66   68 2    
   132   67  132 1    
   133   67  133 1    
   134   69   70 1    
   135   69  134 1    
   136   69  135 1    
   137   70   71 1    
   138   71  136 1    
   139   71  137 1    
@<TRIPOS>SUBSTRUCTURE
     1 UNK         1 GROUP             0       ****    0 ROOT    
