@<TRIPOS>MOLECULE
3R137
137   139    1
SMALL
USER_CHARGES


@<TRIPOS>ATOM
      1 CA         30.3068   -0.5557    1.7914 C.3       0 UNK        -0.2020 
      2 C          29.8072   -0.8481    0.3846 C.2       0 UNK         0.4855 
      3 O          29.9289    0.0026   -0.4965 O.2       0 UNK        -0.5197 
      4 N          29.2486   -2.0463    0.1686 N.am      1 UNK        -0.4892 
      5 CA         28.7173   -2.5104   -1.1221 C.3       1 UNK         0.0835 
      6 C6         28.4662   -4.0406   -1.1269 C.3       12 UNK        -0.0855 
      7 S7         29.9676   -4.9839   -0.6757 S.3       12 UNK        -0.2931 
      8 C8         30.3616   -5.8990   -2.2046 C.3       12 UNK         0.0378 
      9 C9         30.5185   -4.9995   -3.4251 C.ar      12 UNK        -0.0802 
     10 C10        31.4222   -3.9305   -3.4171 C.ar      12 UNK        -0.0944 
     11 C11        31.5388   -3.0911   -4.5296 C.ar      12 UNK        -0.0787 
     12 C12        30.7694   -3.3490   -5.6665 C.ar      12 UNK        -0.0862 
     13 C13        29.8659   -4.4164   -5.6900 C.ar      12 UNK        -0.0733 
     14 C14        29.7491   -5.2403   -4.5679 C.ar      12 UNK        -0.0832 
     15 C15        28.9890   -4.6573   -6.9134 C.3       12 UNK         0.0240 
     16 S16        27.2409   -4.2305   -6.6032 S.3       12 UNK        -0.2522 
     17 C17        27.3688   -2.4699   -6.1539 C.3       12 UNK        -0.0967 
     18 CA         26.8436   -1.5285   -7.2608 C.3       5 UNK         0.0660 
     19 N          25.3800   -1.5550   -7.3097 N.am      5 UNK        -0.4015 
     20 C          24.5502   -0.6987   -7.9239 C.2       4 UNK         0.4946 
     21 O          24.9146    0.1738   -8.7141 O.2       4 UNK        -0.5353 
     22 CA         23.0692   -0.7681   -7.4963 C.3       4 UNK         0.0277 
     23 CB         22.2609   -1.5976   -8.5060 C.3       4 UNK        -0.1981 
     24 N          22.8624   -1.3038   -6.1376 N.am      4 UNK        -0.4209 
     25 C          23.4390   -0.8256   -5.0223 C.2       3 UNK         0.4942 
     26 O          24.1583    0.1800   -5.0107 O.2       3 UNK        -0.5208 
     27 CA         23.2653   -1.6430   -3.7307 C.3       3 UNK         0.0250 
     28 CB         23.6267   -3.1309   -3.9531 C.3       3 UNK        -0.1990 
     29 N          24.1522   -1.0385   -2.7401 N.am      3 UNK        -0.4232 
     30 C          24.3213   -1.3611   -1.4559 C.2       2 UNK         0.4993 
     31 O          23.6919   -2.2429   -0.8676 O.2       2 UNK        -0.5286 
     32 CA         25.4015   -0.5624   -0.7051 C.3       2 UNK         0.0209 
     33 CB         24.9086   -0.1075    0.6801 C.3       2 UNK        -0.1931 
     34 N          26.6356   -1.3342   -0.5446 N.am      2 UNK        -0.4546 
     35 C          27.4436   -1.7418   -1.5366 C.2       1 UNK         0.5154 
     36 O          27.2379   -1.5072   -2.7276 O.2       1 UNK        -0.5181 
     37 C          27.4445   -0.1284   -7.0312 C.2       5 UNK         0.5014 
     38 O          28.4819    0.1631   -7.6248 O.2       5 UNK        -0.5248 
     39 N          26.8017    0.7126   -6.2062 N.am      6 UNK        -0.4434 
     40 CA         27.2454    2.0777   -5.9084 C.3       6 UNK         0.0363 
     41 CB         26.3537    2.6735   -4.8080 C.3       6 UNK        -0.1936 
     42 C          27.2785    3.0034   -7.1392 C.2       6 UNK         0.5081 
     43 O          28.0781    3.9389   -7.1604 O.2       6 UNK        -0.5248 
     44 N          26.4320    2.7203   -8.1380 N.am      7 UNK        -0.4718 
     45 CA         26.4210    3.3994   -9.4324 C.3       7 UNK         0.0273 
     46 CB         24.9669    3.6955   -9.8353 C.3       7 UNK        -0.1935 
     47 C          27.1126    2.5502  -10.5093 C.2       7 UNK         0.5018 
     48 O          27.8493    3.1010  -11.3277 O.2       7 UNK        -0.5186 
     49 N          26.8478    1.2355  -10.5091 N.am      8 UNK        -0.4240 
     50 CA         27.2885    0.3016  -11.5474 C.3       8 UNK         0.0235 
     51 CB         26.4516   -0.9851  -11.4555 C.3       8 UNK        -0.2000 
     52 C          28.7890   -0.0355  -11.5196 C.2       8 UNK         0.4941 
     53 O          29.3415   -0.3353  -12.5794 O.2       8 UNK        -0.5273 
     54 N          29.4131   -0.0152  -10.3346 N.am      9 UNK        -0.4262 
     55 CA         30.8062   -0.4224  -10.1289 C.3       9 UNK         0.0264 
     56 CB         30.8392   -1.8188   -9.4848 C.3       9 UNK        -0.1955 
     57 C          31.5891    0.5874   -9.2814 C.2       9 UNK         0.5031 
     58 O          32.7254    0.9076   -9.6328 O.2       9 UNK        -0.5390 
     59 N          30.9909    1.0512   -8.1748 N.am      10 UNK        -0.4204 
     60 CA         31.4810    2.0178   -7.1797 C.3       10 UNK         0.0237 
     61 CB         31.7018    3.4026   -7.8180 C.3       10 UNK        -0.1985 
     62 C          32.7175    1.5850   -6.3641 C.2       10 UNK         0.4970 
     63 O          32.7996    1.9410   -5.1885 O.2       10 UNK        -0.4914 
     64 N          33.6475    0.8493   -6.9850 N.am      11 UNK        -0.4285 
     65 CA         34.9456    0.4083   -6.4407 C.3       11 UNK         0.1007 
     66 C          35.9615    1.5663   -6.1891 C.2       11 UNK         0.5703 
     67 N          35.7711    2.7500   -6.7608 N.am      11 UNK        -0.7361 
     68 O          36.9590    1.3861   -5.4937 O.2       11 UNK        -0.4986 
     69 C69        34.8225   -0.5569   -5.2241 C.3       12 UNK        -0.0947 
     70 S70        33.8870   -2.0783   -5.5977 S.3       12 UNK        -0.2240 
     71 C71        32.4573   -1.8785   -4.4929 C.3       12 UNK         0.0194 
     72 H72        29.7894    0.3118    2.2002 H         1 UNK         0.0906 
     73 H73        31.3744   -0.3379    1.7722 H         1 UNK         0.0906 
     74 H74        30.1450   -1.3963    2.4659 H         1 UNK         0.0906 
     75 H75        29.2112   -2.7212    0.9199 H         1 UNK         0.3140 
     76 H76        29.4705   -2.2937   -1.8835 H         1 UNK         0.1085 
     77 H77        27.6778   -4.3023   -0.4185 H         1 UNK         0.0836 
     78 H78        28.1095   -4.3662   -2.1062 H         1 UNK         0.0836 
     79 H79        31.2897   -6.4518   -2.0538 H         1 UNK         0.0731 
     80 H80        29.5838   -6.6465   -2.3694 H         1 UNK         0.0731 
     81 H81        32.0128   -3.7381   -2.5317 H         1 UNK         0.1312 
     82 H82        30.8609   -2.6970   -6.5228 H         1 UNK         0.1406 
     83 H83        29.0418   -6.0588   -4.5831 H         1 UNK         0.1631 
     84 H84        29.3490   -4.0843   -7.7690 H         1 UNK         0.0717 
     85 H85        29.0513   -5.7076   -7.2014 H         1 UNK         0.0717 
     86 H86        26.8177   -2.3141   -5.2248 H         1 UNK         0.0934 
     87 H87        28.4017   -2.2361   -5.9018 H         1 UNK         0.0934 
     88 H88        27.2100   -1.8756   -8.2282 H         1 UNK         0.0739 
     89 H89        24.9533   -2.2513   -6.7180 H         1 UNK         0.3093 
     90 H90        22.6866    0.2545   -7.5050 H         1 UNK         0.0818 
     91 H91        21.1950   -1.5721   -8.2789 H         1 UNK         0.0819 
     92 H92        22.3831   -1.2067   -9.5174 H         1 UNK         0.0819 
     93 H93        22.5782   -2.6411   -8.5198 H         1 UNK         0.0819 
     94 H94        22.2763   -2.1234   -6.0637 H         1 UNK         0.3041 
     95 H95        22.2324   -1.5491   -3.3914 H         1 UNK         0.0784 
     96 H96        22.9802   -3.5993   -4.6955 H         1 UNK         0.0793 
     97 H97        24.6573   -3.2487   -4.2903 H         1 UNK         0.0793 
     98 H98        23.5132   -3.7141   -3.0398 H         1 UNK         0.0793 
     99 H99        24.7101   -0.2925   -3.1420 H         1 UNK         0.3024 
    100 H100       25.6404    0.3331   -1.2837 H         1 UNK         0.1171 
    101 H101       25.6441    0.5277    1.1744 H         1 UNK         0.0786 
    102 H102       23.9877    0.4709    0.5948 H         1 UNK         0.0786 
    103 H103       24.7016   -0.9542    1.3360 H         1 UNK         0.0786 
    104 H104       26.8938   -1.5801    0.3997 H         1 UNK         0.2977 
    105 H105       25.9285    0.4188   -5.7754 H         1 UNK         0.3127 
    106 H106       28.2649    2.0140   -5.5227 H         1 UNK         0.0770 
    107 H107       25.3138    2.7469   -5.1292 H         1 UNK         0.0814 
    108 H108       26.6843    3.6773   -4.5378 H         1 UNK         0.0814 
    109 H109       26.3830    2.0675   -3.9023 H         1 UNK         0.0814 
    110 H110       25.8273    1.9111   -8.0464 H         1 UNK         0.2983 
    111 H111       26.9532    4.3513   -9.3678 H         1 UNK         0.0947 
    112 H112       24.9244    4.1984  -10.8025 H         1 UNK         0.0806 
    113 H113       24.4819    4.3484   -9.1095 H         1 UNK         0.0806 
    114 H114       24.3727    2.7839   -9.9138 H         1 UNK         0.0806 
    115 H115       26.1941    0.8689   -9.8198 H         1 UNK         0.3000 
    116 H116       27.0825    0.7640  -12.5155 H         1 UNK         0.0850 
    117 H117       25.3868   -0.7742  -11.5573 H         1 UNK         0.0810 
    118 H118       26.6005   -1.4974  -10.5052 H         1 UNK         0.0810 
    119 H119       26.7204   -1.6844  -12.2486 H         1 UNK         0.0810 
    120 H120       28.8883    0.2465   -9.5055 H         1 UNK         0.3040 
    121 H121       31.3267   -0.4834  -11.0871 H         1 UNK         0.0766 
    122 H122       30.4338   -2.5722  -10.1602 H         1 UNK         0.0812 
    123 H123       30.2530   -1.8472   -8.5670 H         1 UNK         0.0812 
    124 H124       31.8589   -2.1185   -9.2377 H         1 UNK         0.0812 
    125 H125       30.0649    0.6772   -7.9578 H         1 UNK         0.3205 
    126 H126       30.6665    2.1205   -6.4608 H         1 UNK         0.0754 
    127 H127       32.4957    3.3878   -8.5651 H         1 UNK         0.0769 
    128 H128       31.9780    4.1403   -7.0635 H         1 UNK         0.0769 
    129 H129       30.7927    3.7613   -8.3016 H         1 UNK         0.0769 
    130 H130       33.4999    0.6734   -7.9758 H         1 UNK         0.2981 
    131 H131       35.4016   -0.1653   -7.2480 H         1 UNK         0.0541 
    132 H132       34.9716    2.9099   -7.3517 H         1 UNK         0.3459 
    133 H133       36.4394    3.4874   -6.6017 H         1 UNK         0.3459 
    134 H134       34.3816   -0.0436   -4.3685 H         1 UNK         0.0612 
    135 H135       35.8114   -0.8810   -4.8959 H         1 UNK         0.0612 
    136 H136       31.8965   -0.9900   -4.7866 H         1 UNK         0.0624 
    137 H137       32.8120   -1.7001   -3.4764 H         1 UNK         0.0624 
@<TRIPOS>BOND
     1    1    2 1    
     2    1   72 1    
     3    1   73 1    
     4    1   74 1    
     5    2    3 2    
     6    2    4 am   BACKBONE|DICT|INTERRES
     7    4    5 1    
     8    4   75 1    
     9    5    6 1    
    10    5   35 1    
    11    5   76 1    
    12    6    7 1    
    13    6   77 1    
    14    6   78 1    
    15    7    8 1    
    16    8    9 1    
    17    8   79 1    
    18    8   80 1    
    19    9   10 ar   
    20    9   14 ar   
    21   10   11 ar   
    22   10   81 1    
    23   11   12 ar   
    24   11   71 1    
    25   12   13 ar   
    26   12   82 1    
    27   13   14 ar   
    28   13   15 1    
    29   14   83 1    
    30   15   16 1    
    31   15   84 1    
    32   15   85 1    
    33   16   17 1    
    34   17   18 1    
    35   17   86 1    
    36   17   87 1    
    37   18   19 1    
    38   18   37 1    
    39   18   88 1    
    40   19   20 am   BACKBONE|DICT|INTERRES
    41   19   89 1    
    42   20   21 2    
    43   20   22 1    
    44   22   23 1    
    45   22   24 1    
    46   22   90 1    
    47   23   91 1    
    48   23   92 1    
    49   23   93 1    
    50   24   25 am   BACKBONE|DICT|INTERRES
    51   24   94 1    
    52   25   26 2    
    53   25   27 1    
    54   27   28 1    
    55   27   29 1    
    56   27   95 1    
    57   28   96 1    
    58   28   97 1    
    59   28   98 1    
    60   29   30 am   BACKBONE|DICT|INTERRES
    61   29   99 1    
    62   30   31 2    
    63   30   32 1    
    64   32   33 1    
    65   32   34 1    
    66   32  100 1    
    67   33  101 1    
    68   33  102 1    
    69   33  103 1    
    70   34   35 am   BACKBONE|DICT|INTERRES
    71   34  104 1    
    72   35   36 2    
    73   37   38 2    
    74   37   39 am   BACKBONE|DICT|INTERRES
    75   39   40 1    
    76   39  105 1    
    77   40   41 1    
    78   40   42 1    
    79   40  106 1    
    80   41  107 1    
    81   41  108 1    
    82   41  109 1    
    83   42   43 2    
    84   42   44 am   BACKBONE|DICT|INTERRES
    85   44   45 1    
    86   44  110 1    
    87   45   46 1    
    88   45   47 1    
    89   45  111 1    
    90   46  112 1    
    91   46  113 1    
    92   46  114 1    
    93   47   48 2    
    94   47   49 am   BACKBONE|DICT|INTERRES
    95   49   50 1    
    96   49  115 1    
    97   50   51 1    
    98   50   52 1    
    99   50  116 1    
   100   51  117 1    
   101   51  118 1    
   102   51  119 1    
   103   52   53 2    
   104   52   54 am   BACKBONE|DICT|INTERRES
   105   54   55 1    
   106   54  120 1    
   107   55   56 1    
   108   55   57 1    
   109   55  121 1    
   110   56  122 1    
   111   56  123 1    
   112   56  124 1    
   113   57   58 2    
   114   57   59 am   BACKBONE|DICT|INTERRES
   115   59   60 1    
   116   59  125 1    
   117   60   61 1    
   118   60   62 1    
   119   60  126 1    
   120   61  127 1    
   121   61  128 1    
   122   61  129 1    
   123   62   63 2    
   124   62   64 am   BACKBONE|DICT|INTERRES
   125   64   65 1    
   126   64  130 1    
   127   65   66 1    
   128   65   69 1    
   129   65  131 1    
   130   66   67 am   BACKBONE|DICT|INTERRES
   131   66   68 2    
   132   67  132 1    
   133   67  133 1    
   134   69   70 1    
   135   69  134 1    
   136   69  135 1    
   137   70   71 1    
   138   71  136 1    
   139   71  137 1    
@<TRIPOS>SUBSTRUCTURE
     1 UNK         1 GROUP             0       ****    0 ROOT    
