@<TRIPOS>MOLECULE
3R137
137   139    1
SMALL
USER_CHARGES


@<TRIPOS>ATOM
      1 CA         24.1388   -1.3930   -8.4534 C.3       0 UNK        -0.2020 
      2 C          24.2233   -2.6243   -7.5648 C.2       0 UNK         0.4855 
      3 O          23.5874   -3.6380   -7.8558 O.2       0 UNK        -0.5197 
      4 N          25.0162   -2.5419   -6.4927 N.am      1 UNK        -0.4892 
      5 CA         25.2001   -3.5925   -5.4910 C.3       1 UNK         0.0835 
      6 C6         26.6413   -3.5557   -4.9096 C.3       12 UNK        -0.0855 
      7 S7         27.2979   -5.2290   -4.6001 S.3       12 UNK        -0.2931 
      8 C8         28.9984   -5.0845   -5.2595 C.3       12 UNK         0.0378 
      9 C9         29.8990   -4.0826   -4.5316 C.ar      12 UNK        -0.0802 
     10 C10        30.9978   -3.5418   -5.2115 C.ar      12 UNK        -0.0944 
     11 C11        31.8550   -2.6345   -4.5796 C.ar      12 UNK        -0.0787 
     12 C12        31.6025   -2.2591   -3.2585 C.ar      12 UNK        -0.0862 
     13 C13        30.4975   -2.7695   -2.5731 C.ar      12 UNK        -0.0733 
     14 C14        29.6678   -3.6996   -3.2029 C.ar      12 UNK        -0.0832 
     15 C15        30.1769   -2.2832   -1.1660 C.3       12 UNK         0.0240 
     16 S16        28.7216   -1.1794   -1.1359 S.3       12 UNK        -0.2522 
     17 C17        29.1480    0.0508   -2.4149 C.3       12 UNK        -0.0967 
     18 CA         28.3134   -0.1736   -3.7033 C.3       5 UNK         0.0660 
     19 N          26.9351    0.2997   -3.5340 N.am      5 UNK        -0.4015 
     20 C          25.9575    0.2904   -4.4494 C.2       4 UNK         0.4946 
     21 O          26.0913   -0.1169   -5.6050 O.2       4 UNK        -0.5353 
     22 CA         24.5890    0.8021   -3.9698 C.3       4 UNK         0.0277 
     23 CB         23.5442    0.8652   -5.1003 C.3       4 UNK        -0.1981 
     24 N          24.0702   -0.0378   -2.8877 N.am      4 UNK        -0.4209 
     25 C          24.3363    0.1403   -1.5853 C.2       3 UNK         0.4942 
     26 O          25.1088    1.0067   -1.1726 O.2       3 UNK        -0.5208 
     27 CA         23.6318   -0.7787   -0.5685 C.3       3 UNK         0.0250 
     28 CB         22.3896   -0.0803    0.0083 C.3       3 UNK        -0.1990 
     29 N          23.2355   -2.0700   -1.1345 N.am      3 UNK        -0.4232 
     30 C          24.0767   -3.0926   -1.3324 C.2       2 UNK         0.4993 
     31 O          25.2564   -3.0848   -0.9795 O.2       2 UNK        -0.5286 
     32 CA         23.5430   -4.3200   -2.0970 C.3       2 UNK         0.0209 
     33 CB         22.0022   -4.3900   -2.2165 C.3       2 UNK        -0.1931 
     34 N          24.1891   -4.3955   -3.4130 N.am      2 UNK        -0.4546 
     35 C          24.1534   -3.4530   -4.3667 C.2       1 UNK         0.5154 
     36 O          23.3948   -2.4789   -4.3323 O.2       1 UNK        -0.5181 
     37 C          29.0076    0.4249   -4.9401 C.2       5 UNK         0.5014 
     38 O          29.3105   -0.3081   -5.8823 O.2       5 UNK        -0.5248 
     39 N          29.2190    1.7495   -4.9261 N.am      6 UNK        -0.4434 
     40 CA         29.9407    2.4853   -5.9696 C.3       6 UNK         0.0363 
     41 CB         30.0556    3.9648   -5.5724 C.3       6 UNK        -0.1936 
     42 C          29.3232    2.3534   -7.3706 C.2       6 UNK         0.5081 
     43 O          30.0620    2.2879   -8.3512 O.2       6 UNK        -0.5248 
     44 N          27.9889    2.2758   -7.4418 N.am      7 UNK        -0.4718 
     45 CA         27.2268    2.1577   -8.6865 C.3       7 UNK         0.0273 
     46 CB         25.7333    2.3434   -8.3770 C.3       7 UNK        -0.1935 
     47 C          27.4631    0.8469   -9.4606 C.2       7 UNK         0.5018 
     48 O          27.1872    0.8149  -10.6606 O.2       7 UNK        -0.5186 
     49 N          27.9565   -0.2031   -8.7869 N.am      8 UNK        -0.4240 
     50 CA         28.2362   -1.4989   -9.4079 C.3       8 UNK         0.0235 
     51 CB         28.3110   -2.5884   -8.3287 C.3       8 UNK        -0.2000 
     52 C          29.5143   -1.5193  -10.2607 C.2       8 UNK         0.4941 
     53 O          29.5532   -2.2680  -11.2386 O.2       8 UNK        -0.5273 
     54 N          30.5432   -0.7524   -9.8685 N.am      9 UNK        -0.4262 
     55 CA         31.8934   -0.8865  -10.4327 C.3       9 UNK         0.0264 
     56 CB         32.6600   -1.9592   -9.6310 C.3       9 UNK        -0.1955 
     57 C          32.7014    0.4196  -10.5145 C.2       9 UNK         0.5031 
     58 O          33.8621    0.3558  -10.9226 O.2       9 UNK        -0.5390 
     59 N          32.1261    1.5637  -10.1092 N.am      10 UNK        -0.4204 
     60 CA         32.7970    2.8630   -9.9258 C.3       10 UNK         0.0237 
     61 CB         33.3220    3.4302  -11.2630 C.3       10 UNK        -0.1985 
     62 C          33.8721    2.8235   -8.8176 C.2       10 UNK         0.4970 
     63 O          34.8410    3.5826   -8.8679 O.2       10 UNK        -0.4914 
     64 N          33.6762    1.9307   -7.8392 N.am      11 UNK        -0.4285 
     65 CA         34.5844    1.6567   -6.7180 C.3       11 UNK         0.1007 
     66 C          34.4943    2.6646   -5.5337 C.2       11 UNK         0.5703 
     67 N          33.6248    3.6674   -5.5757 N.am      11 UNK        -0.7361 
     68 O          35.2430    2.5462   -4.5666 O.2       11 UNK        -0.4986 
     69 C69        34.4680    0.1751   -6.2648 C.3       12 UNK        -0.0947 
     70 S70        32.7854   -0.3095   -5.7514 S.3       12 UNK        -0.2240 
     71 C71        33.0576   -2.0528   -5.3093 C.3       12 UNK         0.0194 
     72 H72        23.1595   -0.9251   -8.3579 H         1 UNK         0.0906 
     73 H73        24.8976   -0.6583   -8.1882 H         1 UNK         0.0906 
     74 H74        24.2896   -1.6680   -9.4969 H         1 UNK         0.0906 
     75 H75        25.4491   -1.6467   -6.2605 H         1 UNK         0.3140 
     76 H76        25.0301   -4.5566   -5.9759 H         1 UNK         0.1085 
     77 H77        26.6964   -2.9792   -3.9834 H         1 UNK         0.0836 
     78 H78        27.3211   -3.0454   -5.5919 H         1 UNK         0.0836 
     79 H79        29.4701   -6.0666   -5.2099 H         1 UNK         0.0731 
     80 H80        28.9352   -4.8268   -6.3178 H         1 UNK         0.0731 
     81 H81        31.1883   -3.8288   -6.2366 H         1 UNK         0.1312 
     82 H82        32.2544   -1.5434   -2.7763 H         1 UNK         0.1406 
     83 H83        28.8246   -4.0963   -2.6551 H         1 UNK         0.1631 
     84 H84        31.0301   -1.7567   -0.7354 H         1 UNK         0.0717 
     85 H85        29.9869   -3.1400   -0.5180 H         1 UNK         0.0717 
     86 H86        30.2198    0.0052   -2.6126 H         1 UNK         0.0934 
     87 H87        28.9751    1.0483   -2.0072 H         1 UNK         0.0934 
     88 H88        28.2582   -1.2460   -3.8927 H         1 UNK         0.0739 
     89 H89        26.6873    0.6147   -2.6030 H         1 UNK         0.3093 
     90 H90        24.7319    1.8209   -3.6029 H         1 UNK         0.0818 
     91 H91        22.5844    1.2273   -4.7320 H         1 UNK         0.0819 
     92 H92        23.8627    1.5476   -5.8877 H         1 UNK         0.0819 
     93 H93        23.3781   -0.1097   -5.5591 H         1 UNK         0.0819 
     94 H94        23.5249   -0.8437   -3.1796 H         1 UNK         0.3041 
     95 H95        24.3314   -0.9552    0.2517 H         1 UNK         0.0784 
     96 H96        22.6557    0.8745    0.4643 H         1 UNK         0.0793 
     97 H97        21.6447    0.1232   -0.7622 H         1 UNK         0.0793 
     98 H98        21.9171   -0.6859    0.7819 H         1 UNK         0.0793 
     99 H99        22.2882   -2.1528   -1.4751 H         1 UNK         0.3024 
    100 H100       23.8703   -5.1947   -1.5321 H         1 UNK         0.1171 
    101 H101       21.6943   -5.3166   -2.7011 H         1 UNK         0.0786 
    102 H102       21.5826   -3.5671   -2.7952 H         1 UNK         0.0786 
    103 H103       21.5324   -4.3760   -1.2321 H         1 UNK         0.0786 
    104 H104       24.8824   -5.1263   -3.5114 H         1 UNK         0.2977 
    105 H105       28.9109    2.2824   -4.1259 H         1 UNK         0.3127 
    106 H106       30.9483    2.0693   -6.0219 H         1 UNK         0.0770 
    107 H107       29.0759    4.4287   -5.4513 H         1 UNK         0.0814 
    108 H108       30.5917    4.5336   -6.3335 H         1 UNK         0.0814 
    109 H109       30.6031    4.0835   -4.6372 H         1 UNK         0.0814 
    110 H110       27.4615    2.2781   -6.5811 H         1 UNK         0.2983 
    111 H111       27.5415    2.9714   -9.3438 H         1 UNK         0.0947 
    112 H112       25.1303    2.2647   -9.2828 H         1 UNK         0.0806 
    113 H113       25.5358    3.3232   -7.9419 H         1 UNK         0.0806 
    114 H114       25.3751    1.5878   -7.6793 H         1 UNK         0.0806 
    115 H115       28.1684   -0.1040   -7.7995 H         1 UNK         0.3000 
    116 H116       27.4030   -1.7477  -10.0694 H         1 UNK         0.0850 
    117 H117       28.5624   -3.5572   -8.7628 H         1 UNK         0.0810 
    118 H118       27.3511   -2.7034   -7.8328 H         1 UNK         0.0810 
    119 H119       29.0634   -2.3642   -7.5717 H         1 UNK         0.0810 
    120 H120       30.4294   -0.1728   -9.0478 H         1 UNK         0.3040 
    121 H121       31.8191   -1.2284  -11.4672 H         1 UNK         0.0766 
    122 H122       32.7712   -1.6722   -8.5852 H         1 UNK         0.0812 
    123 H123       33.6608   -2.1202  -10.0339 H         1 UNK         0.0812 
    124 H124       32.1476   -2.9209   -9.6606 H         1 UNK         0.0812 
    125 H125       31.1699    1.5508   -9.7656 H         1 UNK         0.3205 
    126 H126       32.0307    3.5516   -9.5680 H         1 UNK         0.0754 
    127 H127       33.6602    4.4602  -11.1429 H         1 UNK         0.0769 
    128 H128       32.5428    3.4335  -12.0251 H         1 UNK         0.0769 
    129 H129       34.1662    2.8575  -11.6475 H         1 UNK         0.0769 
    130 H130       32.8379    1.3703   -7.8593 H         1 UNK         0.2981 
    131 H131       35.6001    1.7774   -7.0991 H         1 UNK         0.0541 
    132 H132       33.0338    3.7952   -6.3792 H         1 UNK         0.3459 
    133 H133       33.5878    4.3179   -4.8073 H         1 UNK         0.3459 
    134 H134       35.1621   -0.0353   -5.4492 H         1 UNK         0.0612 
    135 H135       34.7685   -0.4782   -7.0855 H         1 UNK         0.0612 
    136 H136       33.2766   -2.6227   -6.2135 H         1 UNK         0.0624 
    137 H137       33.9378   -2.1322   -4.6697 H         1 UNK         0.0624 
@<TRIPOS>BOND
     1    1    2 1    
     2    1   72 1    
     3    1   73 1    
     4    1   74 1    
     5    2    3 2    
     6    2    4 am   BACKBONE|DICT|INTERRES
     7    4    5 1    
     8    4   75 1    
     9    5    6 1    
    10    5   35 1    
    11    5   76 1    
    12    6    7 1    
    13    6   77 1    
    14    6   78 1    
    15    7    8 1    
    16    8    9 1    
    17    8   79 1    
    18    8   80 1    
    19    9   10 ar   
    20    9   14 ar   
    21   10   11 ar   
    22   10   81 1    
    23   11   12 ar   
    24   11   71 1    
    25   12   13 ar   
    26   12   82 1    
    27   13   14 ar   
    28   13   15 1    
    29   14   83 1    
    30   15   16 1    
    31   15   84 1    
    32   15   85 1    
    33   16   17 1    
    34   17   18 1    
    35   17   86 1    
    36   17   87 1    
    37   18   19 1    
    38   18   37 1    
    39   18   88 1    
    40   19   20 am   BACKBONE|DICT|INTERRES
    41   19   89 1    
    42   20   21 2    
    43   20   22 1    
    44   22   23 1    
    45   22   24 1    
    46   22   90 1    
    47   23   91 1    
    48   23   92 1    
    49   23   93 1    
    50   24   25 am   BACKBONE|DICT|INTERRES
    51   24   94 1    
    52   25   26 2    
    53   25   27 1    
    54   27   28 1    
    55   27   29 1    
    56   27   95 1    
    57   28   96 1    
    58   28   97 1    
    59   28   98 1    
    60   29   30 am   BACKBONE|DICT|INTERRES
    61   29   99 1    
    62   30   31 2    
    63   30   32 1    
    64   32   33 1    
    65   32   34 1    
    66   32  100 1    
    67   33  101 1    
    68   33  102 1    
    69   33  103 1    
    70   34   35 am   BACKBONE|DICT|INTERRES
    71   34  104 1    
    72   35   36 2    
    73   37   38 2    
    74   37   39 am   BACKBONE|DICT|INTERRES
    75   39   40 1    
    76   39  105 1    
    77   40   41 1    
    78   40   42 1    
    79   40  106 1    
    80   41  107 1    
    81   41  108 1    
    82   41  109 1    
    83   42   43 2    
    84   42   44 am   BACKBONE|DICT|INTERRES
    85   44   45 1    
    86   44  110 1    
    87   45   46 1    
    88   45   47 1    
    89   45  111 1    
    90   46  112 1    
    91   46  113 1    
    92   46  114 1    
    93   47   48 2    
    94   47   49 am   BACKBONE|DICT|INTERRES
    95   49   50 1    
    96   49  115 1    
    97   50   51 1    
    98   50   52 1    
    99   50  116 1    
   100   51  117 1    
   101   51  118 1    
   102   51  119 1    
   103   52   53 2    
   104   52   54 am   BACKBONE|DICT|INTERRES
   105   54   55 1    
   106   54  120 1    
   107   55   56 1    
   108   55   57 1    
   109   55  121 1    
   110   56  122 1    
   111   56  123 1    
   112   56  124 1    
   113   57   58 2    
   114   57   59 am   BACKBONE|DICT|INTERRES
   115   59   60 1    
   116   59  125 1    
   117   60   61 1    
   118   60   62 1    
   119   60  126 1    
   120   61  127 1    
   121   61  128 1    
   122   61  129 1    
   123   62   63 2    
   124   62   64 am   BACKBONE|DICT|INTERRES
   125   64   65 1    
   126   64  130 1    
   127   65   66 1    
   128   65   69 1    
   129   65  131 1    
   130   66   67 am   BACKBONE|DICT|INTERRES
   131   66   68 2    
   132   67  132 1    
   133   67  133 1    
   134   69   70 1    
   135   69  134 1    
   136   69  135 1    
   137   70   71 1    
   138   71  136 1    
   139   71  137 1    
@<TRIPOS>SUBSTRUCTURE
     1 UNK         1 GROUP             0       ****    0 ROOT    
