@<TRIPOS>MOLECULE
3R137
137   139    1
SMALL
USER_CHARGES


@<TRIPOS>ATOM
      1 CA         25.5147   -2.2854    1.2113 C.3       0 UNK        -0.2020 
      2 C          26.0729   -2.5899   -0.1702 C.2       0 UNK         0.4855 
      3 O          25.6032   -2.0216   -1.1566 O.2       0 UNK        -0.5197 
      4 N          27.0576   -3.4972   -0.2500 N.am      1 UNK        -0.4892 
      5 CA         27.8070   -3.8583   -1.4652 C.3       1 UNK         0.0835 
      6 C6         28.9429   -4.8720   -1.1781 C.3       12 UNK        -0.0855 
      7 S7         30.0830   -4.3108    0.1324 S.3       12 UNK        -0.2931 
      8 C8         31.5240   -3.7448   -0.8343 C.3       12 UNK         0.0378 
      9 C9         31.2271   -2.5221   -1.6964 C.ar      12 UNK        -0.0802 
     10 C10        31.5597   -2.5219   -3.0556 C.ar      12 UNK        -0.0944 
     11 C11        31.3221   -1.3916   -3.8441 C.ar      12 UNK        -0.0787 
     12 C12        30.7319   -0.2622   -3.2715 C.ar      12 UNK        -0.0862 
     13 C13        30.3836   -0.2537   -1.9189 C.ar      12 UNK        -0.0733 
     14 C14        30.6473   -1.3796   -1.1337 C.ar      12 UNK        -0.0832 
     15 C15        29.7068    0.9600   -1.3043 C.3       12 UNK         0.0240 
     16 S16        27.9027    0.7364   -1.3060 S.3       12 UNK        -0.2522 
     17 C17        27.3326    2.0843   -2.3960 C.3       12 UNK        -0.0967 
     18 CA         27.6794    1.9142   -3.8997 C.3       5 UNK         0.0660 
     19 N          27.4216    0.5588   -4.3947 N.am      5 UNK        -0.4015 
     20 C          27.6950    0.1133   -5.6298 C.2       4 UNK         0.4946 
     21 O          28.2939    0.7749   -6.4770 O.2       4 UNK        -0.5353 
     22 CA         27.1589   -1.2765   -6.0169 C.3       4 UNK         0.0277 
     23 CB         28.2992   -2.3017   -6.0280 C.3       4 UNK        -0.1981 
     24 N          26.0509   -1.7491   -5.1750 N.am      4 UNK        -0.4209 
     25 C          24.8568   -1.1364   -5.0890 C.2       3 UNK         0.4942 
     26 O          24.5956   -0.1028   -5.7087 O.2       3 UNK        -0.5208 
     27 CA         23.8070   -1.6937   -4.1083 C.3       3 UNK         0.0250 
     28 CB         22.3834   -1.6905   -4.7050 C.3       3 UNK        -0.1990 
     29 N          24.1567   -2.9891   -3.5145 N.am      3 UNK        -0.4232 
     30 C          24.1725   -4.1983   -4.0991 C.2       2 UNK         0.4993 
     31 O          23.8254   -4.4055   -5.2626 O.2       2 UNK        -0.5286 
     32 CA         24.6958   -5.3669   -3.2320 C.3       2 UNK         0.0209 
     33 CB         25.1484   -6.5800   -4.0738 C.3       2 UNK        -0.1931 
     34 N          25.7585   -4.9598   -2.2983 N.am      2 UNK        -0.4546 
     35 C          26.9219   -4.3703   -2.6203 C.2       1 UNK         0.5154 
     36 O          27.2820   -4.1724   -3.7786 O.2       1 UNK        -0.5181 
     37 C          26.9426    2.9933   -4.7243 C.2       5 UNK         0.5014 
     38 O          27.4823    4.0860   -4.9015 O.2       5 UNK        -0.5248 
     39 N          25.7313    2.6728   -5.2081 N.am      6 UNK        -0.4434 
     40 CA         24.9275    3.5516   -6.0589 C.3       6 UNK         0.0363 
     41 CB         23.4410    3.1872   -5.9139 C.3       6 UNK        -0.1936 
     42 C          25.3597    3.4793   -7.5319 C.2       6 UNK         0.5081 
     43 O          25.2691    4.4868   -8.2337 O.2       6 UNK        -0.5248 
     44 N          25.8167    2.2992   -7.9768 N.am      7 UNK        -0.4718 
     45 CA         26.3252    2.0693   -9.3318 C.3       7 UNK         0.0273 
     46 CB         26.4040    0.5596   -9.6091 C.3       7 UNK        -0.1935 
     47 C          27.6928    2.7306   -9.5640 C.2       7 UNK         0.5018 
     48 O          27.9197    3.2796  -10.6428 O.2       7 UNK        -0.5186 
     49 N          28.5769    2.6495   -8.5577 N.am      8 UNK        -0.4240 
     50 CA         29.9347    3.2048   -8.4581 C.3       8 UNK         0.0235 
     51 CB         29.9216    4.7425   -8.5524 C.3       8 UNK        -0.2000 
     52 C          30.9605    2.5950   -9.4312 C.2       8 UNK         0.4941 
     53 O          32.0766    2.2909   -9.0111 O.2       8 UNK        -0.5273 
     54 N          30.5766    2.4156  -10.7010 N.am      9 UNK        -0.4262 
     55 CA         31.3883    1.7959  -11.7513 C.3       9 UNK         0.0264 
     56 CB         30.7553    2.0883  -13.1208 C.3       9 UNK        -0.1955 
     57 C          31.5690    0.2812  -11.5546 C.2       9 UNK         0.5031 
     58 O          32.6096   -0.2596  -11.9327 O.2       9 UNK        -0.5390 
     59 N          30.5755   -0.3779  -10.9420 N.am      10 UNK        -0.4204 
     60 CA         30.5593   -1.8105  -10.6268 C.3       10 UNK         0.0237 
     61 CB         29.0947   -2.2642  -10.4694 C.3       10 UNK        -0.1985 
     62 C          31.4160   -2.1440   -9.3872 C.2       10 UNK         0.4970 
     63 O          30.9291   -2.7915   -8.4599 O.2       10 UNK        -0.4914 
     64 N          32.6667   -1.6748   -9.3840 N.am      11 UNK        -0.4285 
     65 CA         33.6018   -1.7472   -8.2535 C.3       11 UNK         0.1007 
     66 C          35.0741   -2.0109   -8.6826 C.2       11 UNK         0.5703 
     67 N          35.3522   -2.3289   -9.9426 N.am      11 UNK        -0.7361 
     68 O          35.9839   -1.9462   -7.8596 O.2       11 UNK        -0.4986 
     69 C69        33.4355   -0.5100   -7.3219 C.3       12 UNK        -0.0947 
     70 S70        33.4421   -0.9350   -5.5510 S.3       12 UNK        -0.2240 
     71 C71        31.6951   -1.3840   -5.3169 C.3       12 UNK         0.0194 
     72 H72        24.4419   -2.4830    1.2339 H         1 UNK         0.0906 
     73 H73        25.9893   -2.8888    1.9880 H         1 UNK         0.0906 
     74 H74        25.6746   -1.2329    1.4524 H         1 UNK         0.0906 
     75 H75        27.4034   -3.9232    0.5991 H         1 UNK         0.3140 
     76 H76        28.2654   -2.9350   -1.8275 H         1 UNK         0.1085 
     77 H77        29.5162   -5.0718   -2.0862 H         1 UNK         0.0836 
     78 H78        28.5260   -5.8326   -0.8687 H         1 UNK         0.0836 
     79 H79        31.8896   -4.5736   -1.4428 H         1 UNK         0.0731 
     80 H80        32.3303   -3.4939   -0.1438 H         1 UNK         0.0731 
     81 H81        32.0174   -3.3947   -3.5010 H         1 UNK         0.1312 
     82 H82        30.5413    0.6079   -3.8835 H         1 UNK         0.1406 
     83 H83        30.3828   -1.3742   -0.0848 H         1 UNK         0.1631 
     84 H84        29.9856    1.8685   -1.8399 H         1 UNK         0.0717 
     85 H85        30.0466    1.0961   -0.2766 H         1 UNK         0.0717 
     86 H86        26.2507    2.1496   -2.2607 H         1 UNK         0.0934 
     87 H87        27.7339    3.0277   -2.0199 H         1 UNK         0.0934 
     88 H88        28.7473    2.0978   -4.0260 H         1 UNK         0.0739 
     89 H89        26.9633   -0.0661   -3.7475 H         1 UNK         0.3093 
     90 H90        26.7715   -1.2005   -7.0339 H         1 UNK         0.0818 
     91 H91        28.7646   -2.3994   -5.0467 H         1 UNK         0.0819 
     92 H92        27.9504   -3.2870   -6.3375 H         1 UNK         0.0819 
     93 H93        29.0778   -2.0021   -6.7293 H         1 UNK         0.0819 
     94 H94        26.2183   -2.5968   -4.6427 H         1 UNK         0.3041 
     95 H95        23.8018   -0.9941   -3.2710 H         1 UNK         0.0784 
     96 H96        22.0740   -0.6782   -4.9685 H         1 UNK         0.0793 
     97 H97        22.3203   -2.2903   -5.6132 H         1 UNK         0.0793 
     98 H98        21.6529   -2.0760   -3.9939 H         1 UNK         0.0793 
     99 H99        24.5296   -2.9170   -2.5710 H         1 UNK         0.3024 
    100 H100       23.8494   -5.6865   -2.6215 H         1 UNK         0.1171 
    101 H101       25.5017   -7.3933   -3.4399 H         1 UNK         0.0786 
    102 H102       24.3241   -6.9720   -4.6711 H         1 UNK         0.0786 
    103 H103       25.9521   -6.3180   -4.7629 H         1 UNK         0.0786 
    104 H104       25.5477   -5.0592   -1.3143 H         1 UNK         0.2977 
    105 H105       25.3684    1.7366   -5.0628 H         1 UNK         0.3127 
    106 H106       25.0550    4.5836   -5.7239 H         1 UNK         0.0770 
    107 H107       23.2362    2.1710   -6.2528 H         1 UNK         0.0814 
    108 H108       22.8173    3.8584   -6.5059 H         1 UNK         0.0814 
    109 H109       23.1113    3.2684   -4.8781 H         1 UNK         0.0814 
    110 H110       25.8425    1.5200   -7.3342 H         1 UNK         0.2983 
    111 H111       25.6184    2.5092  -10.0392 H         1 UNK         0.0947 
    112 H112       26.6970    0.3694  -10.6425 H         1 UNK         0.0806 
    113 H113       25.4408    0.0738   -9.4514 H         1 UNK         0.0806 
    114 H114       27.1376    0.0700   -8.9694 H         1 UNK         0.0806 
    115 H115       28.3084    2.0807   -7.7548 H         1 UNK         0.3000 
    116 H116       30.2733    2.9440   -7.4537 H         1 UNK         0.0850 
    117 H117       30.9182    5.1509   -8.3797 H         1 UNK         0.0810 
    118 H118       29.2586    5.1770   -7.8038 H         1 UNK         0.0810 
    119 H119       29.5943    5.0904   -9.5325 H         1 UNK         0.0810 
    120 H120       29.6395    2.7288  -10.9488 H         1 UNK         0.3040 
    121 H121       32.3804    2.2520  -11.7273 H         1 UNK         0.0766 
    122 H122       31.3490    1.6536  -13.9264 H         1 UNK         0.0812 
    123 H123       30.6937    3.1606  -13.3079 H         1 UNK         0.0812 
    124 H124       29.7481    1.6764  -13.1978 H         1 UNK         0.0812 
    125 H125       29.7820    0.1604  -10.6291 H         1 UNK         0.3205 
    126 H126       30.9885   -2.3570  -11.4692 H         1 UNK         0.0754 
    127 H127       28.6144   -1.7884   -9.6136 H         1 UNK         0.0769 
    128 H128       29.0346   -3.3427  -10.3166 H         1 UNK         0.0769 
    129 H129       28.5071   -2.0328  -11.3581 H         1 UNK         0.0769 
    130 H130       32.9791   -1.1483  -10.1942 H         1 UNK         0.2981 
    131 H131       33.3430   -2.6440   -7.6879 H         1 UNK         0.0541 
    132 H132       34.6222   -2.4257  -10.6299 H         1 UNK         0.3459 
    133 H133       36.3108   -2.5022  -10.2021 H         1 UNK         0.3459 
    134 H134       32.5008    0.0138   -7.5286 H         1 UNK         0.0612 
    135 H135       34.2135    0.2336   -7.5051 H         1 UNK         0.0612 
    136 H136       31.5134   -2.3659   -5.7561 H         1 UNK         0.0624 
    137 H137       31.0560   -0.6821   -5.8554 H         1 UNK         0.0624 
@<TRIPOS>BOND
     1    1    2 1    
     2    1   72 1    
     3    1   73 1    
     4    1   74 1    
     5    2    3 2    
     6    2    4 am   BACKBONE|DICT|INTERRES
     7    4    5 1    
     8    4   75 1    
     9    5    6 1    
    10    5   35 1    
    11    5   76 1    
    12    6    7 1    
    13    6   77 1    
    14    6   78 1    
    15    7    8 1    
    16    8    9 1    
    17    8   79 1    
    18    8   80 1    
    19    9   10 ar   
    20    9   14 ar   
    21   10   11 ar   
    22   10   81 1    
    23   11   12 ar   
    24   11   71 1    
    25   12   13 ar   
    26   12   82 1    
    27   13   14 ar   
    28   13   15 1    
    29   14   83 1    
    30   15   16 1    
    31   15   84 1    
    32   15   85 1    
    33   16   17 1    
    34   17   18 1    
    35   17   86 1    
    36   17   87 1    
    37   18   19 1    
    38   18   37 1    
    39   18   88 1    
    40   19   20 am   BACKBONE|DICT|INTERRES
    41   19   89 1    
    42   20   21 2    
    43   20   22 1    
    44   22   23 1    
    45   22   24 1    
    46   22   90 1    
    47   23   91 1    
    48   23   92 1    
    49   23   93 1    
    50   24   25 am   BACKBONE|DICT|INTERRES
    51   24   94 1    
    52   25   26 2    
    53   25   27 1    
    54   27   28 1    
    55   27   29 1    
    56   27   95 1    
    57   28   96 1    
    58   28   97 1    
    59   28   98 1    
    60   29   30 am   BACKBONE|DICT|INTERRES
    61   29   99 1    
    62   30   31 2    
    63   30   32 1    
    64   32   33 1    
    65   32   34 1    
    66   32  100 1    
    67   33  101 1    
    68   33  102 1    
    69   33  103 1    
    70   34   35 am   BACKBONE|DICT|INTERRES
    71   34  104 1    
    72   35   36 2    
    73   37   38 2    
    74   37   39 am   BACKBONE|DICT|INTERRES
    75   39   40 1    
    76   39  105 1    
    77   40   41 1    
    78   40   42 1    
    79   40  106 1    
    80   41  107 1    
    81   41  108 1    
    82   41  109 1    
    83   42   43 2    
    84   42   44 am   BACKBONE|DICT|INTERRES
    85   44   45 1    
    86   44  110 1    
    87   45   46 1    
    88   45   47 1    
    89   45  111 1    
    90   46  112 1    
    91   46  113 1    
    92   46  114 1    
    93   47   48 2    
    94   47   49 am   BACKBONE|DICT|INTERRES
    95   49   50 1    
    96   49  115 1    
    97   50   51 1    
    98   50   52 1    
    99   50  116 1    
   100   51  117 1    
   101   51  118 1    
   102   51  119 1    
   103   52   53 2    
   104   52   54 am   BACKBONE|DICT|INTERRES
   105   54   55 1    
   106   54  120 1    
   107   55   56 1    
   108   55   57 1    
   109   55  121 1    
   110   56  122 1    
   111   56  123 1    
   112   56  124 1    
   113   57   58 2    
   114   57   59 am   BACKBONE|DICT|INTERRES
   115   59   60 1    
   116   59  125 1    
   117   60   61 1    
   118   60   62 1    
   119   60  126 1    
   120   61  127 1    
   121   61  128 1    
   122   61  129 1    
   123   62   63 2    
   124   62   64 am   BACKBONE|DICT|INTERRES
   125   64   65 1    
   126   64  130 1    
   127   65   66 1    
   128   65   69 1    
   129   65  131 1    
   130   66   67 am   BACKBONE|DICT|INTERRES
   131   66   68 2    
   132   67  132 1    
   133   67  133 1    
   134   69   70 1    
   135   69  134 1    
   136   69  135 1    
   137   70   71 1    
   138   71  136 1    
   139   71  137 1    
@<TRIPOS>SUBSTRUCTURE
     1 UNK         1 GROUP             0       ****    0 ROOT    
