@<TRIPOS>MOLECULE
3R137
137   139    1
SMALL
USER_CHARGES


@<TRIPOS>ATOM
      1 CA         25.3560   -4.9744   -7.6587 C.3       0 UNK        -0.2020 
      2 C          25.8825   -4.9986   -6.2319 C.2       0 UNK         0.4855 
      3 O          25.1408   -5.3550   -5.3152 O.2       0 UNK        -0.5197 
      4 N          27.1559   -4.6271   -6.0325 N.am      1 UNK        -0.4892 
      5 CA         27.8125   -4.5773   -4.7215 C.3       1 UNK         0.0835 
      6 C6         29.3258   -4.2750   -4.8392 C.3       12 UNK        -0.0855 
      7 S7         30.2164   -4.7896   -3.3316 S.3       12 UNK        -0.2931 
      8 C8         31.6713   -3.6914   -3.3593 C.3       12 UNK         0.0378 
      9 C9         31.3591   -2.2060   -3.1821 C.ar      12 UNK        -0.0802 
     10 C10        32.1059   -1.2691   -3.9000 C.ar      12 UNK        -0.0944 
     11 C11        31.8860    0.1023   -3.7450 C.ar      12 UNK        -0.0787 
     12 C12        30.9029    0.5399   -2.8524 C.ar      12 UNK        -0.0862 
     13 C13        30.1544   -0.3829   -2.1143 C.ar      12 UNK        -0.0733 
     14 C14        30.3851   -1.7530   -2.2839 C.ar      12 UNK        -0.0832 
     15 C15        29.1295    0.0960   -1.0967 C.3       12 UNK         0.0240 
     16 S16        27.4507    0.1657   -1.7921 S.3       12 UNK        -0.2522 
     17 C17        27.4609    1.7359   -2.7140 C.3       12 UNK        -0.0967 
     18 CA         27.3997    1.5442   -4.2500 C.3       5 UNK         0.0660 
     19 N          26.2552    0.7279   -4.6799 N.am      5 UNK        -0.4015 
     20 C          26.0264    0.3268   -5.9393 C.2       4 UNK         0.4946 
     21 O          26.7790    0.5864   -6.8823 O.2       4 UNK        -0.5353 
     22 CA         24.7204   -0.4453   -6.1954 C.3       4 UNK         0.0277 
     23 CB         24.7428   -1.2688   -7.4963 C.3       4 UNK        -0.1981 
     24 N          24.3614   -1.3253   -5.0804 N.am      4 UNK        -0.4209 
     25 C          23.0997   -1.5636   -4.6885 C.2       3 UNK         0.4942 
     26 O          22.1285   -0.9526   -5.1372 O.2       3 UNK        -0.5208 
     27 CA         22.8409   -2.6813   -3.6592 C.3       3 UNK         0.0250 
     28 CB         22.0743   -3.8438   -4.3132 C.3       3 UNK        -0.1990 
     29 N          24.0618   -3.2091   -3.0514 N.am      3 UNK        -0.4232 
     30 C          24.6815   -2.6599   -1.9978 C.2       2 UNK         0.4993 
     31 O          24.2451   -1.6853   -1.3850 O.2       2 UNK        -0.5286 
     32 CA         26.0149   -3.2919   -1.5502 C.3       2 UNK         0.0209 
     33 CB         25.7912   -4.2041   -0.3331 C.3       2 UNK        -0.1931 
     34 N          26.7257   -4.0483   -2.5881 N.am      2 UNK        -0.4546 
     35 C          27.1038   -3.5781   -3.7856 C.2       1 UNK         0.5154 
     36 O          26.8741   -2.4342   -4.1818 O.2       1 UNK        -0.5181 
     37 C          27.4079    2.9245   -4.9374 C.2       5 UNK         0.5014 
     38 O          28.4566    3.3680   -5.4040 O.2       5 UNK        -0.5248 
     39 N          26.2301    3.5651   -5.0107 N.am      6 UNK        -0.4434 
     40 CA         26.0244    4.8779   -5.6333 C.3       6 UNK         0.0363 
     41 CB         24.6287    5.4031   -5.2606 C.3       6 UNK        -0.1936 
     42 C          26.2037    4.8690   -7.1619 C.2       6 UNK         0.5081 
     43 O          26.5726    5.8951   -7.7329 O.2       6 UNK        -0.5248 
     44 N          25.9606    3.7122   -7.7924 N.am      7 UNK        -0.4718 
     45 CA         26.2089    3.4700   -9.2160 C.3       7 UNK         0.0273 
     46 CB         25.2478    2.3750   -9.7062 C.3       7 UNK        -0.1935 
     47 C          27.6706    3.0751   -9.5040 C.2       7 UNK         0.5018 
     48 O          28.0370    2.9742  -10.6755 O.2       7 UNK        -0.5186 
     49 N          28.4644    2.8527   -8.4446 N.am      8 UNK        -0.4240 
     50 CA         29.8568    2.4027   -8.4399 C.3       8 UNK         0.0235 
     51 CB         30.7906    3.4799   -9.0320 C.3       8 UNK        -0.2000 
     52 C          30.0319    1.0175   -9.0881 C.2       8 UNK         0.4941 
     53 O          30.9129    0.8388   -9.9325 O.2       8 UNK        -0.5273 
     54 N          29.1829    0.0580   -8.6900 N.am      9 UNK        -0.4262 
     55 CA         29.3045   -1.3465   -9.0840 C.3       9 UNK         0.0264 
     56 CB         28.0362   -2.1067   -8.6743 C.3       9 UNK        -0.1955 
     57 C          30.5513   -1.9815   -8.4465 C.2       9 UNK         0.5031 
     58 O          30.6933   -1.9275   -7.2243 O.2       9 UNK        -0.5390 
     59 N          31.4133   -2.5732   -9.2856 N.am      10 UNK        -0.4204 
     60 CA         32.7468   -3.0892   -8.9589 C.3       10 UNK         0.0237 
     61 CB         32.6880   -4.2462   -7.9315 C.3       10 UNK        -0.1985 
     62 C          33.6916   -1.9353   -8.5719 C.2       10 UNK         0.4970 
     63 O          34.1524   -1.2260   -9.4671 O.2       10 UNK        -0.4914 
     64 N          33.9669   -1.7790   -7.2708 N.am      11 UNK        -0.4285 
     65 CA         34.8304   -0.7398   -6.6754 C.3       11 UNK         0.1007 
     66 C          36.3427   -0.8562   -7.0413 C.2       11 UNK         0.5703 
     67 N          36.8176   -1.9932   -7.5368 N.am      11 UNK        -0.7361 
     68 O          37.1102    0.0826   -6.8409 O.2       11 UNK        -0.4986 
     69 C69        34.2802    0.7085   -6.8567 C.3       12 UNK        -0.0947 
     70 S70        32.5515    0.9227   -6.3109 S.3       12 UNK        -0.2240 
     71 C71        32.7414    1.1051   -4.5096 C.3       12 UNK         0.0194 
     72 H72        24.4358   -4.3929   -7.7090 H         1 UNK         0.0906 
     73 H73        26.0722   -4.5380   -8.3538 H         1 UNK         0.0906 
     74 H74        25.1339   -5.9880   -7.9912 H         1 UNK         0.0906 
     75 H75        27.7172   -4.3248   -6.8144 H         1 UNK         0.3140 
     76 H76        27.7021   -5.5795   -4.3004 H         1 UNK         0.1085 
     77 H77        29.5014   -3.2170   -5.0482 H         1 UNK         0.0836 
     78 H78        29.7607   -4.8233   -5.6765 H         1 UNK         0.0836 
     79 H79        32.2042   -3.8604   -4.2965 H         1 UNK         0.0731 
     80 H80        32.3494   -3.9959   -2.5612 H         1 UNK         0.0731 
     81 H81        32.8682   -1.6084   -4.5839 H         1 UNK         0.1312 
     82 H82        30.7342    1.5992   -2.7165 H         1 UNK         0.1406 
     83 H83        29.8117   -2.4655   -1.7069 H         1 UNK         0.1631 
     84 H84        29.4082    1.0709   -0.6940 H         1 UNK         0.0717 
     85 H85        29.1201   -0.5855   -0.2447 H         1 UNK         0.0717 
     86 H86        26.6080    2.3209   -2.3639 H         1 UNK         0.0934 
     87 H87        28.3468    2.3107   -2.4378 H         1 UNK         0.0934 
     88 H88        28.3037    1.0162   -4.5630 H         1 UNK         0.0739 
     89 H89        25.6184    0.4344   -3.9536 H         1 UNK         0.3093 
     90 H90        23.9586    0.3288   -6.3077 H         1 UNK         0.0818 
     91 H91        25.0077   -0.6584   -8.3584 H         1 UNK         0.0819 
     92 H92        25.4648   -2.0802   -7.4303 H         1 UNK         0.0819 
     93 H93        23.7668   -1.7071   -7.7042 H         1 UNK         0.0819 
     94 H94        25.1355   -1.8326   -4.6537 H         1 UNK         0.3041 
     95 H95        22.2065   -2.2597   -2.8764 H         1 UNK         0.0784 
     96 H96        21.1212   -3.5043   -4.7211 H         1 UNK         0.0793 
     97 H97        22.6382   -4.2888   -5.1338 H         1 UNK         0.0793 
     98 H98        21.8536   -4.6307   -3.5918 H         1 UNK         0.0793 
     99 H99        24.4931   -4.0007   -3.5138 H         1 UNK         0.3024 
    100 H100       26.6690   -2.4765   -1.2423 H         1 UNK         0.1171 
    101 H101       26.7358   -4.5741    0.0661 H         1 UNK         0.0786 
    102 H102       25.2920   -3.6643    0.4731 H         1 UNK         0.0786 
    103 H103       25.1694   -5.0648   -0.5828 H         1 UNK         0.0786 
    104 H104       26.9486   -5.0067   -2.3602 H         1 UNK         0.2977 
    105 H105       25.4176    3.1267   -4.6015 H         1 UNK         0.3127 
    106 H106       26.7688    5.5636   -5.2225 H         1 UNK         0.0770 
    107 H107       23.8376    4.7491   -5.6296 H         1 UNK         0.0814 
    108 H108       24.4581    6.3924   -5.6879 H         1 UNK         0.0814 
    109 H109       24.5137    5.4960   -4.1805 H         1 UNK         0.0814 
    110 H110       25.6841    2.9118   -7.2421 H         1 UNK         0.2983 
    111 H111       26.0011    4.3835   -9.7779 H         1 UNK         0.0947 
    112 H112       25.3523    2.2156  -10.7803 H         1 UNK         0.0806 
    113 H113       24.2077    2.6418   -9.5186 H         1 UNK         0.0806 
    114 H114       25.4474    1.4227   -9.2168 H         1 UNK         0.0806 
    115 H115       28.0556    2.9622   -7.5246 H         1 UNK         0.3000 
    116 H116       30.1249    2.2804   -7.3898 H         1 UNK         0.0850 
    117 H117       31.8360    3.1898   -8.9183 H         1 UNK         0.0810 
    118 H118       30.6631    4.4362   -8.5249 H         1 UNK         0.0810 
    119 H119       30.6096    3.6351  -10.0959 H         1 UNK         0.0810 
    120 H120       28.4715    0.2786   -7.9986 H         1 UNK         0.3040 
    121 H121       29.3912   -1.3888  -10.1718 H         1 UNK         0.0766 
    122 H122       27.1580   -1.6953   -9.1709 H         1 UNK         0.0812 
    123 H123       27.8736   -2.0565   -7.5964 H         1 UNK         0.0812 
    124 H124       28.1058   -3.1584   -8.9533 H         1 UNK         0.0812 
    125 H125       31.2044   -2.5343  -10.2738 H         1 UNK         0.3205 
    126 H126       33.1454   -3.5066   -9.8850 H         1 UNK         0.0754 
    127 H127       33.6837   -4.6484   -7.7402 H         1 UNK         0.0769 
    128 H128       32.0801   -5.0684   -8.3092 H         1 UNK         0.0769 
    129 H129       32.2665   -3.9461   -6.9723 H         1 UNK         0.0769 
    130 H130       33.5155   -2.4036   -6.6207 H         1 UNK         0.2981 
    131 H131       34.8170   -0.9445   -5.6055 H         1 UNK         0.0541 
    132 H132       36.2070   -2.7780   -7.6951 H         1 UNK         0.3459 
    133 H133       37.7983   -2.0624   -7.7584 H         1 UNK         0.3459 
    134 H134       34.3340    1.0023   -7.9060 H         1 UNK         0.0612 
    135 H135       34.8955    1.4288   -6.3148 H         1 UNK         0.0612 
    136 H136       33.7839    0.9684   -4.2198 H         1 UNK         0.0624 
    137 H137       32.4789    2.1284   -4.2377 H         1 UNK         0.0624 
@<TRIPOS>BOND
     1    1    2 1    
     2    1   72 1    
     3    1   73 1    
     4    1   74 1    
     5    2    3 2    
     6    2    4 am   BACKBONE|DICT|INTERRES
     7    4    5 1    
     8    4   75 1    
     9    5    6 1    
    10    5   35 1    
    11    5   76 1    
    12    6    7 1    
    13    6   77 1    
    14    6   78 1    
    15    7    8 1    
    16    8    9 1    
    17    8   79 1    
    18    8   80 1    
    19    9   10 ar   
    20    9   14 ar   
    21   10   11 ar   
    22   10   81 1    
    23   11   12 ar   
    24   11   71 1    
    25   12   13 ar   
    26   12   82 1    
    27   13   14 ar   
    28   13   15 1    
    29   14   83 1    
    30   15   16 1    
    31   15   84 1    
    32   15   85 1    
    33   16   17 1    
    34   17   18 1    
    35   17   86 1    
    36   17   87 1    
    37   18   19 1    
    38   18   37 1    
    39   18   88 1    
    40   19   20 am   BACKBONE|DICT|INTERRES
    41   19   89 1    
    42   20   21 2    
    43   20   22 1    
    44   22   23 1    
    45   22   24 1    
    46   22   90 1    
    47   23   91 1    
    48   23   92 1    
    49   23   93 1    
    50   24   25 am   BACKBONE|DICT|INTERRES
    51   24   94 1    
    52   25   26 2    
    53   25   27 1    
    54   27   28 1    
    55   27   29 1    
    56   27   95 1    
    57   28   96 1    
    58   28   97 1    
    59   28   98 1    
    60   29   30 am   BACKBONE|DICT|INTERRES
    61   29   99 1    
    62   30   31 2    
    63   30   32 1    
    64   32   33 1    
    65   32   34 1    
    66   32  100 1    
    67   33  101 1    
    68   33  102 1    
    69   33  103 1    
    70   34   35 am   BACKBONE|DICT|INTERRES
    71   34  104 1    
    72   35   36 2    
    73   37   38 2    
    74   37   39 am   BACKBONE|DICT|INTERRES
    75   39   40 1    
    76   39  105 1    
    77   40   41 1    
    78   40   42 1    
    79   40  106 1    
    80   41  107 1    
    81   41  108 1    
    82   41  109 1    
    83   42   43 2    
    84   42   44 am   BACKBONE|DICT|INTERRES
    85   44   45 1    
    86   44  110 1    
    87   45   46 1    
    88   45   47 1    
    89   45  111 1    
    90   46  112 1    
    91   46  113 1    
    92   46  114 1    
    93   47   48 2    
    94   47   49 am   BACKBONE|DICT|INTERRES
    95   49   50 1    
    96   49  115 1    
    97   50   51 1    
    98   50   52 1    
    99   50  116 1    
   100   51  117 1    
   101   51  118 1    
   102   51  119 1    
   103   52   53 2    
   104   52   54 am   BACKBONE|DICT|INTERRES
   105   54   55 1    
   106   54  120 1    
   107   55   56 1    
   108   55   57 1    
   109   55  121 1    
   110   56  122 1    
   111   56  123 1    
   112   56  124 1    
   113   57   58 2    
   114   57   59 am   BACKBONE|DICT|INTERRES
   115   59   60 1    
   116   59  125 1    
   117   60   61 1    
   118   60   62 1    
   119   60  126 1    
   120   61  127 1    
   121   61  128 1    
   122   61  129 1    
   123   62   63 2    
   124   62   64 am   BACKBONE|DICT|INTERRES
   125   64   65 1    
   126   64  130 1    
   127   65   66 1    
   128   65   69 1    
   129   65  131 1    
   130   66   67 am   BACKBONE|DICT|INTERRES
   131   66   68 2    
   132   67  132 1    
   133   67  133 1    
   134   69   70 1    
   135   69  134 1    
   136   69  135 1    
   137   70   71 1    
   138   71  136 1    
   139   71  137 1    
@<TRIPOS>SUBSTRUCTURE
     1 UNK         1 GROUP             0       ****    0 ROOT    
