@<TRIPOS>MOLECULE
3R137
137   139    1
SMALL
USER_CHARGES


@<TRIPOS>ATOM
      1 CA         26.8188   -5.0444   -3.2206 C.3       0 UNK        -0.2020 
      2 C          26.9328   -4.2746   -1.9147 C.2       0 UNK         0.4855 
      3 O          27.2984   -4.8577   -0.8946 O.2       0 UNK        -0.5197 
      4 N          26.6068   -2.9782   -1.9395 N.am      1 UNK        -0.4892 
      5 CA         26.6048   -2.0859   -0.7790 C.3       1 UNK         0.0835 
      6 C6         27.7999   -1.0973   -0.7934 C.3       12 UNK        -0.0855 
      7 S7         29.3353   -1.8960   -0.2211 S.3       12 UNK        -0.2931 
      8 C8         30.6176   -0.8645   -1.0132 C.3       12 UNK         0.0378 
      9 C9         30.8991   -1.1665   -2.4867 C.ar      12 UNK        -0.0802 
     10 C10        31.5484   -0.1918   -3.2522 C.ar      12 UNK        -0.0944 
     11 C11        31.8677   -0.4278   -4.5915 C.ar      12 UNK        -0.0787 
     12 C12        31.5353   -1.6544   -5.1700 C.ar      12 UNK        -0.0862 
     13 C13        30.8947   -2.6444   -4.4220 C.ar      12 UNK        -0.0733 
     14 C14        30.5789   -2.3951   -3.0823 C.ar      12 UNK        -0.0832 
     15 C15        30.5782   -3.9973   -5.0484 C.3       12 UNK         0.0240 
     16 S16        29.6402   -3.8691   -6.6068 S.3       12 UNK        -0.2522 
     17 C17        28.0821   -3.1158   -6.0469 C.3       12 UNK        -0.0967 
     18 CA         27.6082   -1.9276   -6.9210 C.3       5 UNK         0.0660 
     19 N          26.1778   -1.6955   -6.7001 N.am      5 UNK        -0.4015 
     20 C          25.3991   -0.8245   -7.3461 C.2       4 UNK         0.4946 
     21 O          25.8093   -0.1245   -8.2714 O.2       4 UNK        -0.5353 
     22 CA         23.9387   -0.6518   -6.8659 C.3       4 UNK         0.0277 
     23 CB         22.9896   -0.4013   -8.0544 C.3       4 UNK        -0.1981 
     24 N          23.3487   -1.7125   -6.0320 N.am      4 UNK        -0.4209 
     25 C          23.7490   -2.1694   -4.8377 C.2       3 UNK         0.4942 
     26 O          24.8427   -1.9201   -4.3192 O.2       3 UNK        -0.5208 
     27 CA         22.7650   -3.1025   -4.1154 C.3       3 UNK         0.0250 
     28 CB         23.0424   -4.5725   -4.4668 C.3       3 UNK        -0.1990 
     29 N          22.8777   -2.9177   -2.6702 N.am      3 UNK        -0.4232 
     30 C          22.3345   -1.8983   -1.9886 C.2       2 UNK         0.4993 
     31 O          21.5248   -1.1031   -2.4672 O.2       2 UNK        -0.5286 
     32 CA         22.8004   -1.7225   -0.5325 C.3       2 UNK         0.0209 
     33 CB         21.9197   -2.5421    0.4248 C.3       2 UNK        -0.1931 
     34 N          24.2050   -2.1090   -0.3631 N.am      2 UNK        -0.4546 
     35 C          25.2417   -1.3829   -0.8068 C.2       1 UNK         0.5154 
     36 O          25.1349   -0.2520   -1.2846 O.2       1 UNK        -0.5181 
     37 C          28.4375   -0.6434   -6.6862 C.2       5 UNK         0.5014 
     38 O          29.3053   -0.3077   -7.4988 O.2       5 UNK        -0.5248 
     39 N          28.1040    0.0792   -5.6051 N.am      6 UNK        -0.4434 
     40 CA         28.6878    1.3751   -5.2585 C.3       6 UNK         0.0363 
     41 CB         28.4028    1.6949   -3.7832 C.3       6 UNK        -0.1936 
     42 C          28.1983    2.5167   -6.1615 C.2       6 UNK         0.5081 
     43 O          28.9837    3.4111   -6.4705 O.2       6 UNK        -0.5248 
     44 N          26.9270    2.4642   -6.5854 N.am      7 UNK        -0.4718 
     45 CA         26.3143    3.4487   -7.4850 C.3       7 UNK         0.0273 
     46 CB         24.7871    3.2805   -7.4822 C.3       7 UNK        -0.1935 
     47 C          26.8762    3.3634   -8.9135 C.2       7 UNK         0.5018 
     48 O          27.1199    4.3990   -9.5331 O.2       7 UNK        -0.5186 
     49 N          27.1159    2.1330   -9.3882 N.am      8 UNK        -0.4240 
     50 CA         27.8250    1.8375  -10.6355 C.3       8 UNK         0.0235 
     51 CB         27.5838    0.3641  -11.0047 C.3       8 UNK        -0.2000 
     52 C          29.3374    2.1203  -10.5562 C.2       8 UNK         0.4941 
     53 O          29.9793    2.2138  -11.6030 O.2       8 UNK        -0.5273 
     54 N          29.8735    2.2278   -9.3295 N.am      9 UNK        -0.4262 
     55 CA         31.2850    2.4045   -8.9728 C.3       9 UNK         0.0264 
     56 CB         31.8025    3.7851   -9.4270 C.3       9 UNK        -0.1955 
     57 C          32.1596    1.2373   -9.4659 C.2       9 UNK         0.5031 
     58 O          33.2806    1.4540   -9.9314 O.2       9 UNK        -0.5390 
     59 N          31.6329    0.0091   -9.3454 N.am      10 UNK        -0.4204 
     60 CA         32.2430   -1.2191   -9.8694 C.3       10 UNK         0.0237 
     61 CB         31.2276   -2.3643   -9.7586 C.3       10 UNK        -0.1985 
     62 C          33.5792   -1.6035   -9.2060 C.2       10 UNK         0.4970 
     63 O          34.3480   -2.3623   -9.7972 O.2       10 UNK        -0.4914 
     64 N          33.8360   -1.0639   -8.0092 N.am      11 UNK        -0.4285 
     65 CA         35.1117   -1.1523   -7.2911 C.3       11 UNK         0.1007 
     66 C          36.2438   -0.2488   -7.8670 C.2       11 UNK         0.5703 
     67 N          35.9728    0.6580   -8.8008 N.am      11 UNK        -0.7361 
     68 O          37.3977   -0.3873   -7.4679 O.2       11 UNK        -0.4986 
     69 C69        34.9098   -0.9692   -5.7623 C.3       12 UNK        -0.0947 
     70 S70        34.3522    0.6939   -5.2358 S.3       12 UNK        -0.2240 
     71 C71        32.5393    0.6529   -5.4249 C.3       12 UNK         0.0194 
     72 H72        26.3578   -4.4443   -4.0028 H         1 UNK         0.0906 
     73 H73        26.2113   -5.9377   -3.0785 H         1 UNK         0.0906 
     74 H74        27.8051   -5.3556   -3.5622 H         1 UNK         0.0906 
     75 H75        26.2352   -2.5633   -2.7888 H         1 UNK         0.3140 
     76 H76        26.6423   -2.6562    0.1524 H         1 UNK         0.1085 
     77 H77        27.6144   -0.2471   -0.1339 H         1 UNK         0.0836 
     78 H78        27.9436   -0.6876   -1.7937 H         1 UNK         0.0836 
     79 H79        30.3425    0.1847   -0.8933 H         1 UNK         0.0731 
     80 H80        31.5480   -1.0015   -0.4609 H         1 UNK         0.0731 
     81 H81        31.8105    0.7571   -2.8039 H         1 UNK         0.1312 
     82 H82        31.7737   -1.8449   -6.2068 H         1 UNK         0.1406 
     83 H83        30.0985   -3.1701   -2.5019 H         1 UNK         0.1631 
     84 H84        30.0232   -4.6296   -4.3544 H         1 UNK         0.0717 
     85 H85        31.5171   -4.5147   -5.2497 H         1 UNK         0.0717 
     86 H86        27.3408   -3.9151   -6.0888 H         1 UNK         0.0934 
     87 H87        28.1503   -2.8271   -4.9965 H         1 UNK         0.0934 
     88 H88        27.7231   -2.2001   -7.9724 H         1 UNK         0.0739 
     89 H89        25.7667   -2.1277   -5.8776 H         1 UNK         0.3093 
     90 H90        23.9425    0.2516   -6.2533 H         1 UNK         0.0818 
     91 H91        23.3301    0.4223   -8.6827 H         1 UNK         0.0819 
     92 H92        22.9116   -1.2810   -8.6944 H         1 UNK         0.0819 
     93 H93        21.9864   -0.1421   -7.7154 H         1 UNK         0.0819 
     94 H94        22.4595   -2.0549   -6.3676 H         1 UNK         0.3041 
     95 H95        21.7466   -2.8565   -4.4248 H         1 UNK         0.0784 
     96 H96        22.9677   -4.7406   -5.5420 H         1 UNK         0.0793 
     97 H97        24.0379   -4.8864   -4.1564 H         1 UNK         0.0793 
     98 H98        22.3210   -5.2346   -3.9872 H         1 UNK         0.0793 
     99 H99        23.5535   -3.4959   -2.1953 H         1 UNK         0.3024 
    100 H100       22.6958   -0.6649   -0.2778 H         1 UNK         0.1171 
    101 H101       21.9857   -3.6121    0.2234 H         1 UNK         0.0786 
    102 H102       22.2045   -2.3774    1.4642 H         1 UNK         0.0786 
    103 H103       20.8711   -2.2567    0.3287 H         1 UNK         0.0786 
    104 H104       24.3832   -3.0267    0.0204 H         1 UNK         0.2977 
    105 H105       27.3779   -0.2698   -4.9968 H         1 UNK         0.3127 
    106 H106       29.7677    1.3058   -5.3875 H         1 UNK         0.0770 
    107 H107       28.8050    2.6717   -3.5107 H         1 UNK         0.0814 
    108 H108       27.3340    1.7090   -3.5663 H         1 UNK         0.0814 
    109 H109       28.8716    0.9645   -3.1264 H         1 UNK         0.0814 
    110 H110       26.3564    1.6816   -6.3052 H         1 UNK         0.2983 
    111 H111       26.5452    4.4449   -7.1004 H         1 UNK         0.0947 
    112 H112       24.4873    2.3089   -7.8719 H         1 UNK         0.0806 
    113 H113       24.3124    4.0395   -8.1055 H         1 UNK         0.0806 
    114 H114       24.3760    3.3837   -6.4779 H         1 UNK         0.0806 
    115 H115       26.7960    1.3297   -8.8489 H         1 UNK         0.3000 
    116 H116       27.4110    2.4672  -11.4257 H         1 UNK         0.0850 
    117 H117       28.0712    0.1098  -11.9469 H         1 UNK         0.0810 
    118 H118       26.5205    0.1536  -11.1214 H         1 UNK         0.0810 
    119 H119       27.9748   -0.3101  -10.2409 H         1 UNK         0.0810 
    120 H120       29.2443    2.1243   -8.5450 H         1 UNK         0.3040 
    121 H121       31.3270    2.3813   -7.8831 H         1 UNK         0.0766 
    122 H122       31.8406    3.8669  -10.5136 H         1 UNK         0.0812 
    123 H123       32.8105    3.9666   -9.0522 H         1 UNK         0.0812 
    124 H124       31.1678    4.5877   -9.0511 H         1 UNK         0.0812 
    125 H125       30.7275   -0.0867   -8.8904 H         1 UNK         0.3205 
    126 H126       32.4518   -1.0532  -10.9283 H         1 UNK         0.0754 
    127 H127       31.6350   -3.2952  -10.1553 H         1 UNK         0.0769 
    128 H128       30.3160   -2.1444  -10.3148 H         1 UNK         0.0769 
    129 H129       30.9513   -2.5421   -8.7212 H         1 UNK         0.0769 
    130 H130       33.1594   -0.4282   -7.6207 H         1 UNK         0.2981 
    131 H131       35.4740   -2.1730   -7.4273 H         1 UNK         0.0541 
    132 H132       35.0293    0.7984   -9.1453 H         1 UNK         0.3459 
    133 H133       36.7229    1.2250   -9.1619 H         1 UNK         0.3459 
    134 H134       35.8505   -1.1690   -5.2466 H         1 UNK         0.0612 
    135 H135       34.2236   -1.7247   -5.3824 H         1 UNK         0.0612 
    136 H136       32.1504    1.6288   -5.1305 H         1 UNK         0.0624 
    137 H137       32.2740    0.5386   -6.4740 H         1 UNK         0.0624 
@<TRIPOS>BOND
     1    1    2 1    
     2    1   72 1    
     3    1   73 1    
     4    1   74 1    
     5    2    3 2    
     6    2    4 am   BACKBONE|DICT|INTERRES
     7    4    5 1    
     8    4   75 1    
     9    5    6 1    
    10    5   35 1    
    11    5   76 1    
    12    6    7 1    
    13    6   77 1    
    14    6   78 1    
    15    7    8 1    
    16    8    9 1    
    17    8   79 1    
    18    8   80 1    
    19    9   10 ar   
    20    9   14 ar   
    21   10   11 ar   
    22   10   81 1    
    23   11   12 ar   
    24   11   71 1    
    25   12   13 ar   
    26   12   82 1    
    27   13   14 ar   
    28   13   15 1    
    29   14   83 1    
    30   15   16 1    
    31   15   84 1    
    32   15   85 1    
    33   16   17 1    
    34   17   18 1    
    35   17   86 1    
    36   17   87 1    
    37   18   19 1    
    38   18   37 1    
    39   18   88 1    
    40   19   20 am   BACKBONE|DICT|INTERRES
    41   19   89 1    
    42   20   21 2    
    43   20   22 1    
    44   22   23 1    
    45   22   24 1    
    46   22   90 1    
    47   23   91 1    
    48   23   92 1    
    49   23   93 1    
    50   24   25 am   BACKBONE|DICT|INTERRES
    51   24   94 1    
    52   25   26 2    
    53   25   27 1    
    54   27   28 1    
    55   27   29 1    
    56   27   95 1    
    57   28   96 1    
    58   28   97 1    
    59   28   98 1    
    60   29   30 am   BACKBONE|DICT|INTERRES
    61   29   99 1    
    62   30   31 2    
    63   30   32 1    
    64   32   33 1    
    65   32   34 1    
    66   32  100 1    
    67   33  101 1    
    68   33  102 1    
    69   33  103 1    
    70   34   35 am   BACKBONE|DICT|INTERRES
    71   34  104 1    
    72   35   36 2    
    73   37   38 2    
    74   37   39 am   BACKBONE|DICT|INTERRES
    75   39   40 1    
    76   39  105 1    
    77   40   41 1    
    78   40   42 1    
    79   40  106 1    
    80   41  107 1    
    81   41  108 1    
    82   41  109 1    
    83   42   43 2    
    84   42   44 am   BACKBONE|DICT|INTERRES
    85   44   45 1    
    86   44  110 1    
    87   45   46 1    
    88   45   47 1    
    89   45  111 1    
    90   46  112 1    
    91   46  113 1    
    92   46  114 1    
    93   47   48 2    
    94   47   49 am   BACKBONE|DICT|INTERRES
    95   49   50 1    
    96   49  115 1    
    97   50   51 1    
    98   50   52 1    
    99   50  116 1    
   100   51  117 1    
   101   51  118 1    
   102   51  119 1    
   103   52   53 2    
   104   52   54 am   BACKBONE|DICT|INTERRES
   105   54   55 1    
   106   54  120 1    
   107   55   56 1    
   108   55   57 1    
   109   55  121 1    
   110   56  122 1    
   111   56  123 1    
   112   56  124 1    
   113   57   58 2    
   114   57   59 am   BACKBONE|DICT|INTERRES
   115   59   60 1    
   116   59  125 1    
   117   60   61 1    
   118   60   62 1    
   119   60  126 1    
   120   61  127 1    
   121   61  128 1    
   122   61  129 1    
   123   62   63 2    
   124   62   64 am   BACKBONE|DICT|INTERRES
   125   64   65 1    
   126   64  130 1    
   127   65   66 1    
   128   65   69 1    
   129   65  131 1    
   130   66   67 am   BACKBONE|DICT|INTERRES
   131   66   68 2    
   132   67  132 1    
   133   67  133 1    
   134   69   70 1    
   135   69  134 1    
   136   69  135 1    
   137   70   71 1    
   138   71  136 1    
   139   71  137 1    
@<TRIPOS>SUBSTRUCTURE
     1 UNK         1 GROUP             0       ****    0 ROOT    
