@<TRIPOS>MOLECULE
3R137
137   139    1
SMALL
USER_CHARGES


@<TRIPOS>ATOM
      1 CA         28.9198   -0.0900   -2.6922 C.3       0 UNK        -0.2020 
      2 C          28.8524   -0.2162   -1.1734 C.2       0 UNK         0.4855 
      3 O          29.0248    0.7817   -0.4773 O.2       0 UNK        -0.5197 
      4 N          28.6063   -1.4063   -0.6078 N.am      1 UNK        -0.4892 
      5 CA         28.3656   -2.6846   -1.2973 C.3       1 UNK         0.0835 
      6 C6         28.7426   -3.9021   -0.4129 C.3       12 UNK        -0.0855 
      7 S7         30.4370   -3.8049    0.2653 S.3       12 UNK        -0.2931 
      8 C8         31.4010   -4.7531   -0.9564 C.3       12 UNK         0.0378 
      9 C9         31.4247   -4.0743   -2.3188 C.ar      12 UNK        -0.0802 
     10 C10        32.0951   -2.8570   -2.4871 C.ar      12 UNK        -0.0944 
     11 C11        32.1080   -2.2214   -3.7318 C.ar      12 UNK        -0.0787 
     12 C12        31.4721   -2.8273   -4.8159 C.ar      12 UNK        -0.0862 
     13 C13        30.7668   -4.0231   -4.6545 C.ar      12 UNK        -0.0733 
     14 C14        30.7574   -4.6506   -3.4056 C.ar      12 UNK        -0.0832 
     15 C15        29.9924   -4.6155   -5.8256 C.3       12 UNK         0.0240 
     16 S16        28.2042   -4.2378   -5.7528 S.3       12 UNK        -0.2522 
     17 C17        28.1489   -2.4206   -5.5730 C.3       12 UNK        -0.0967 
     18 CA         27.3505   -1.7092   -6.6862 C.3       5 UNK         0.0660 
     19 N          25.9159   -1.9720   -6.5955 N.am      5 UNK        -0.4015 
     20 C          25.0675   -1.8627   -7.6255 C.2       4 UNK         0.4946 
     21 O          25.4135   -1.6015   -8.7783 O.2       4 UNK        -0.5353 
     22 CA         23.5733   -2.0508   -7.3118 C.3       4 UNK         0.0277 
     23 CB         23.2019   -3.5425   -7.3224 C.3       4 UNK        -0.1981 
     24 N          23.1662   -1.4523   -6.0367 N.am      4 UNK        -0.4209 
     25 C          23.2391   -0.1439   -5.7530 C.2       3 UNK         0.4942 
     26 O          23.6669    0.7074   -6.5312 O.2       3 UNK        -0.5208 
     27 CA         22.7904    0.2908   -4.3496 C.3       3 UNK         0.0250 
     28 CB         21.2672    0.4946   -4.3159 C.3       3 UNK        -0.1990 
     29 N          23.1888   -0.6071   -3.2589 N.am      3 UNK        -0.4232 
     30 C          24.4322   -1.0360   -2.9958 C.2       2 UNK         0.4993 
     31 O          25.4012   -0.8324   -3.7339 O.2       2 UNK        -0.5286 
     32 CA         24.5993   -1.7901   -1.6634 C.3       2 UNK         0.0209 
     33 CB         23.8153   -3.1211   -1.6499 C.3       2 UNK        -0.1931 
     34 N          26.0080   -1.9737   -1.2840 N.am      2 UNK        -0.4546 
     35 C          26.9122   -2.8195   -1.8029 C.2       1 UNK         0.5154 
     36 O          26.6518   -3.6809   -2.6412 O.2       1 UNK        -0.5181 
     37 C          27.6301   -0.1966   -6.6377 C.2       5 UNK         0.5014 
     38 O          28.4769    0.2791   -7.3964 O.2       5 UNK        -0.5248 
     39 N          26.9476    0.5215   -5.7321 N.am      6 UNK        -0.4434 
     40 CA         27.1622    1.9453   -5.4640 C.3       6 UNK         0.0363 
     41 CB         26.3645    2.3715   -4.2219 C.3       6 UNK        -0.1936 
     42 C          26.8261    2.8518   -6.6566 C.2       6 UNK         0.5081 
     43 O          27.6052    3.7557   -6.9568 O.2       6 UNK        -0.5248 
     44 N          25.7002    2.5845   -7.3345 N.am      7 UNK        -0.4718 
     45 CA         25.2596    3.3293   -8.5200 C.3       7 UNK         0.0273 
     46 CB         23.8130    2.9411   -8.8638 C.3       7 UNK        -0.1935 
     47 C          26.1754    3.1206   -9.7378 C.2       7 UNK         0.5018 
     48 O          26.3280    4.0369  -10.5461 O.2       7 UNK        -0.5186 
     49 N          26.7753    1.9276   -9.8360 N.am      8 UNK        -0.4240 
     50 CA         27.7510    1.5693  -10.8650 C.3       8 UNK         0.0235 
     51 CB         27.7314    0.0421  -11.0438 C.3       8 UNK        -0.2000 
     52 C          29.1775    2.0485  -10.5380 C.2       8 UNK         0.4941 
     53 O          30.0094    2.0822  -11.4454 O.2       8 UNK        -0.5273 
     54 N          29.4434    2.3653   -9.2590 N.am      9 UNK        -0.4262 
     55 CA         30.7585    2.6137   -8.6511 C.3       9 UNK         0.0264 
     56 CB         31.3773    3.9253   -9.1776 C.3       9 UNK        -0.1955 
     57 C          31.6898    1.3945   -8.8090 C.2       9 UNK         0.5031 
     58 O          32.8619    1.5437   -9.1609 O.2       9 UNK        -0.5390 
     59 N          31.1265    0.2011   -8.5718 N.am      10 UNK        -0.4204 
     60 CA         31.6583   -1.1051   -8.9782 C.3       10 UNK         0.0237 
     61 CB         30.5640   -2.1645   -8.7725 C.3       10 UNK        -0.1985 
     62 C          32.9980   -1.5508   -8.3563 C.2       10 UNK         0.4970 
     63 O          33.5312   -2.5711   -8.7952 O.2       10 UNK        -0.4914 
     64 N          33.5299   -0.8036   -7.3825 N.am      11 UNK        -0.4285 
     65 CA         34.8847   -0.9865   -6.8372 C.3       11 UNK         0.1007 
     66 C          35.7232    0.3255   -6.8201 C.2       11 UNK         0.5703 
     67 N          35.2901    1.3994   -7.4736 N.am      11 UNK        -0.7361 
     68 O          36.8035    0.3654   -6.2357 O.2       11 UNK        -0.4986 
     69 C69        34.8864   -1.8101   -5.5149 C.3       12 UNK        -0.0947 
     70 S70        34.5515   -0.8887   -3.9719 S.3       12 UNK        -0.2240 
     71 C71        32.7372   -0.8456   -3.8974 C.3       12 UNK         0.0194 
     72 H72        29.6864   -0.7407   -3.1094 H         1 UNK         0.0906 
     73 H73        27.9598   -0.3376   -3.1394 H         1 UNK         0.0906 
     74 H74        29.1645    0.9321   -2.9801 H         1 UNK         0.0906 
     75 H75        28.6131   -1.4655    0.4010 H         1 UNK         0.3140 
     76 H76        28.9969   -2.7252   -2.1851 H         1 UNK         0.1085 
     77 H77        28.0552   -3.9852    0.4313 H         1 UNK         0.0836 
     78 H78        28.6387   -4.8320   -0.9760 H         1 UNK         0.0836 
     79 H79        30.9994   -5.7652   -1.0275 H         1 UNK         0.0731 
     80 H80        32.4246   -4.8562   -0.5935 H         1 UNK         0.0731 
     81 H81        32.5853   -2.3926   -1.6421 H         1 UNK         0.1312 
     82 H82        31.4863   -2.3379   -5.7786 H         1 UNK         0.1406 
     83 H83        30.2128   -5.5766   -3.2787 H         1 UNK         0.1631 
     84 H84        30.1181   -5.6992   -5.8308 H         1 UNK         0.0717 
     85 H85        30.4012   -4.2670   -6.7732 H         1 UNK         0.0717 
     86 H86        27.7221   -2.1954   -4.5965 H         1 UNK         0.0934 
     87 H87        29.1604   -2.0260   -5.5473 H         1 UNK         0.0934 
     88 H88        27.7116   -2.0742   -7.6501 H         1 UNK         0.0739 
     89 H89        25.5476   -2.1501   -5.6705 H         1 UNK         0.3093 
     90 H90        23.0092   -1.5524   -8.1032 H         1 UNK         0.0818 
     91 H91        23.4788   -4.0057   -8.2706 H         1 UNK         0.0819 
     92 H92        23.7112   -4.0933   -6.5304 H         1 UNK         0.0819 
     93 H93        22.1286   -3.6859   -7.1960 H         1 UNK         0.0819 
     94 H94        22.8074   -2.0758   -5.3283 H         1 UNK         0.3041 
     95 H95        23.2558    1.2564   -4.1488 H         1 UNK         0.0784 
     96 H96        20.9461    1.1730   -5.1081 H         1 UNK         0.0793 
     97 H97        20.7293   -0.4444   -4.4533 H         1 UNK         0.0793 
     98 H98        20.9448    0.9316   -3.3706 H         1 UNK         0.0793 
     99 H99        22.4608   -0.8373   -2.5978 H         1 UNK         0.3024 
    100 H100       24.1754   -1.1479   -0.8892 H         1 UNK         0.1171 
    101 H101       24.0046   -3.6840   -0.7359 H         1 UNK         0.0786 
    102 H102       22.7401   -2.9472   -1.7001 H         1 UNK         0.0786 
    103 H103       24.0745   -3.7587   -2.4956 H         1 UNK         0.0786 
    104 H104       26.3608   -1.3018   -0.6164 H         1 UNK         0.2977 
    105 H105       26.2884    0.0417   -5.1216 H         1 UNK         0.3127 
    106 H106       28.2236    2.0759   -5.2426 H         1 UNK         0.0770 
    107 H107       25.2915    2.2867   -4.3874 H         1 UNK         0.0814 
    108 H108       26.5718    3.4111   -3.9651 H         1 UNK         0.0814 
    109 H109       26.6179    1.7668   -3.3517 H         1 UNK         0.0814 
    110 H110       25.0895    1.8347   -7.0130 H         1 UNK         0.2983 
    111 H111       25.2790    4.3936   -8.2750 H         1 UNK         0.0947 
    112 H112       23.4507    3.5028   -9.7259 H         1 UNK         0.0806 
    113 H113       23.1387    3.1504   -8.0332 H         1 UNK         0.0806 
    114 H114       23.7270    1.8803   -9.1039 H         1 UNK         0.0806 
    115 H115       26.5850    1.2352   -9.1246 H         1 UNK         0.3000 
    116 H116       27.4587    2.0292  -11.8116 H         1 UNK         0.0850 
    117 H117       28.4553   -0.2772  -11.7948 H         1 UNK         0.0810 
    118 H118       26.7509   -0.3057  -11.3698 H         1 UNK         0.0810 
    119 H119       27.9729   -0.4740  -10.1142 H         1 UNK         0.0810 
    120 H120       28.6815    2.2825   -8.5978 H         1 UNK         0.3040 
    121 H121       30.5840    2.7337   -7.5807 H         1 UNK         0.0766 
    122 H122       31.6277    3.8604  -10.2368 H         1 UNK         0.0812 
    123 H123       32.2966    4.1645   -8.6417 H         1 UNK         0.0812 
    124 H124       30.6957    4.7653   -9.0441 H         1 UNK         0.0812 
    125 H125       30.1665    0.2053   -8.2303 H         1 UNK         0.3205 
    126 H126       31.8477   -1.0396  -10.0516 H         1 UNK         0.0754 
    127 H127       30.9221   -3.1670   -9.0108 H         1 UNK         0.0769 
    128 H128       29.7058   -1.9740   -9.4160 H         1 UNK         0.0769 
    129 H129       30.2105   -2.1727   -7.7441 H         1 UNK         0.0769 
    130 H130       33.0509    0.0376   -7.0986 H         1 UNK         0.2981 
    131 H131       35.4425   -1.5924   -7.5536 H         1 UNK         0.0541 
    132 H132       35.8539    2.2342   -7.4591 H         1 UNK         0.3459 
    133 H133       34.4520    1.3741   -8.0466 H         1 UNK         0.3459 
    134 H134       35.8728   -2.2589   -5.3886 H         1 UNK         0.0612 
    135 H135       34.2039   -2.6566   -5.5929 H         1 UNK         0.0612 
    136 H136       32.3535   -0.3482   -4.7890 H         1 UNK         0.0624 
    137 H137       32.4424   -0.2175   -3.0555 H         1 UNK         0.0624 
@<TRIPOS>BOND
     1    1    2 1    
     2    1   72 1    
     3    1   73 1    
     4    1   74 1    
     5    2    3 2    
     6    2    4 am   BACKBONE|DICT|INTERRES
     7    4    5 1    
     8    4   75 1    
     9    5    6 1    
    10    5   35 1    
    11    5   76 1    
    12    6    7 1    
    13    6   77 1    
    14    6   78 1    
    15    7    8 1    
    16    8    9 1    
    17    8   79 1    
    18    8   80 1    
    19    9   10 ar   
    20    9   14 ar   
    21   10   11 ar   
    22   10   81 1    
    23   11   12 ar   
    24   11   71 1    
    25   12   13 ar   
    26   12   82 1    
    27   13   14 ar   
    28   13   15 1    
    29   14   83 1    
    30   15   16 1    
    31   15   84 1    
    32   15   85 1    
    33   16   17 1    
    34   17   18 1    
    35   17   86 1    
    36   17   87 1    
    37   18   19 1    
    38   18   37 1    
    39   18   88 1    
    40   19   20 am   BACKBONE|DICT|INTERRES
    41   19   89 1    
    42   20   21 2    
    43   20   22 1    
    44   22   23 1    
    45   22   24 1    
    46   22   90 1    
    47   23   91 1    
    48   23   92 1    
    49   23   93 1    
    50   24   25 am   BACKBONE|DICT|INTERRES
    51   24   94 1    
    52   25   26 2    
    53   25   27 1    
    54   27   28 1    
    55   27   29 1    
    56   27   95 1    
    57   28   96 1    
    58   28   97 1    
    59   28   98 1    
    60   29   30 am   BACKBONE|DICT|INTERRES
    61   29   99 1    
    62   30   31 2    
    63   30   32 1    
    64   32   33 1    
    65   32   34 1    
    66   32  100 1    
    67   33  101 1    
    68   33  102 1    
    69   33  103 1    
    70   34   35 am   BACKBONE|DICT|INTERRES
    71   34  104 1    
    72   35   36 2    
    73   37   38 2    
    74   37   39 am   BACKBONE|DICT|INTERRES
    75   39   40 1    
    76   39  105 1    
    77   40   41 1    
    78   40   42 1    
    79   40  106 1    
    80   41  107 1    
    81   41  108 1    
    82   41  109 1    
    83   42   43 2    
    84   42   44 am   BACKBONE|DICT|INTERRES
    85   44   45 1    
    86   44  110 1    
    87   45   46 1    
    88   45   47 1    
    89   45  111 1    
    90   46  112 1    
    91   46  113 1    
    92   46  114 1    
    93   47   48 2    
    94   47   49 am   BACKBONE|DICT|INTERRES
    95   49   50 1    
    96   49  115 1    
    97   50   51 1    
    98   50   52 1    
    99   50  116 1    
   100   51  117 1    
   101   51  118 1    
   102   51  119 1    
   103   52   53 2    
   104   52   54 am   BACKBONE|DICT|INTERRES
   105   54   55 1    
   106   54  120 1    
   107   55   56 1    
   108   55   57 1    
   109   55  121 1    
   110   56  122 1    
   111   56  123 1    
   112   56  124 1    
   113   57   58 2    
   114   57   59 am   BACKBONE|DICT|INTERRES
   115   59   60 1    
   116   59  125 1    
   117   60   61 1    
   118   60   62 1    
   119   60  126 1    
   120   61  127 1    
   121   61  128 1    
   122   61  129 1    
   123   62   63 2    
   124   62   64 am   BACKBONE|DICT|INTERRES
   125   64   65 1    
   126   64  130 1    
   127   65   66 1    
   128   65   69 1    
   129   65  131 1    
   130   66   67 am   BACKBONE|DICT|INTERRES
   131   66   68 2    
   132   67  132 1    
   133   67  133 1    
   134   69   70 1    
   135   69  134 1    
   136   69  135 1    
   137   70   71 1    
   138   71  136 1    
   139   71  137 1    
@<TRIPOS>SUBSTRUCTURE
     1 UNK         1 GROUP             0       ****    0 ROOT    
