@<TRIPOS>MOLECULE
3R137
137   139    1
SMALL
USER_CHARGES


@<TRIPOS>ATOM
      1 CA         25.1061   -1.5629    4.2325 C.3       0 UNK        -0.2020 
      2 C          25.6661   -1.3441    2.8348 C.2       0 UNK         0.4855 
      3 O          25.1767   -0.4787    2.1079 O.2       0 UNK        -0.5197 
      4 N          26.6933   -2.1150    2.4555 N.am      1 UNK        -0.4892 
      5 CA         27.3068   -2.0898    1.1238 C.3       1 UNK         0.0835 
      6 C6         28.7139   -2.7373    1.1535 C.3       12 UNK        -0.0855 
      7 S7         29.7325   -2.2241   -0.2692 S.3       12 UNK        -0.2931 
      8 C8         30.1957   -3.8333   -0.9924 C.3       12 UNK         0.0378 
      9 C9         30.7004   -3.6860   -2.4228 C.ar      12 UNK        -0.0802 
     10 C10        31.7385   -2.7953   -2.7230 C.ar      12 UNK        -0.0944 
     11 C11        32.1548   -2.6082   -4.0438 C.ar      12 UNK        -0.0787 
     12 C12        31.5603   -3.3570   -5.0609 C.ar      12 UNK        -0.0862 
     13 C13        30.5185   -4.2445   -4.7790 C.ar      12 UNK        -0.0733 
     14 C14        30.1018   -4.4163   -3.4559 C.ar      12 UNK        -0.0832 
     15 C15        29.7949   -4.9496   -5.9206 C.3       12 UNK         0.0240 
     16 S16        28.1402   -4.2383   -6.2409 S.3       12 UNK        -0.2522 
     17 C17        28.4543   -2.4439   -6.1196 C.3       12 UNK        -0.0967 
     18 CA         27.6505   -1.5887   -7.1189 C.3       5 UNK         0.0660 
     19 N          26.2029   -1.7367   -6.9582 N.am      5 UNK        -0.4015 
     20 C          25.2897   -1.2405   -7.8048 C.2       4 UNK         0.4946 
     21 O          25.5680   -0.6235   -8.8329 O.2       4 UNK        -0.5353 
     22 CA         23.8153   -1.4232   -7.4113 C.3       4 UNK         0.0277 
     23 CB         23.3282   -2.8378   -7.7640 C.3       4 UNK        -0.1981 
     24 N          23.5752   -1.1542   -5.9910 N.am      4 UNK        -0.4209 
     25 C          23.7470    0.0422   -5.4097 C.2       3 UNK         0.4942 
     26 O          24.0900    1.0558   -6.0159 O.2       3 UNK        -0.5208 
     27 CA         23.5425    0.1145   -3.8883 C.3       3 UNK         0.0250 
     28 CB         22.0632    0.3642   -3.5542 C.3       3 UNK        -0.1990 
     29 N          24.0179   -1.0726   -3.1695 N.am      3 UNK        -0.4232 
     30 C          25.2891   -1.4966   -3.1518 C.2       2 UNK         0.4993 
     31 O          26.2038   -0.9596   -3.7823 O.2       2 UNK        -0.5286 
     32 CA         25.5938   -2.7117   -2.2718 C.3       2 UNK         0.0209 
     33 CB         26.3254   -3.8164   -3.0525 C.3       2 UNK        -0.1931 
     34 N          26.4228   -2.2598   -1.1604 N.am      2 UNK        -0.4546 
     35 C          26.3795   -2.7544    0.0814 C.2       1 UNK         0.5154 
     36 O          25.6611   -3.7017    0.4148 O.2       1 UNK        -0.5181 
     37 C          28.0887   -0.1196   -6.9880 C.2       5 UNK         0.5014 
     38 O          28.9419    0.3238   -7.7592 O.2       5 UNK        -0.5248 
     39 N          27.5021    0.5990   -6.0187 N.am      6 UNK        -0.4434 
     40 CA         27.7317    2.0255   -5.7891 C.3       6 UNK         0.0363 
     41 CB         27.0709    2.4519   -4.4689 C.3       6 UNK        -0.1936 
     42 C          27.2404    2.8941   -6.9585 C.2       6 UNK         0.5081 
     43 O          27.9645    3.7942   -7.3824 O.2       6 UNK        -0.5248 
     44 N          26.0436    2.5891   -7.4817 N.am      7 UNK        -0.4718 
     45 CA         25.4532    3.2438   -8.6528 C.3       7 UNK         0.0273 
     46 CB         23.9928    2.7937   -8.8160 C.3       7 UNK        -0.1935 
     47 C          26.2469    2.9890   -9.9448 C.2       7 UNK         0.5018 
     48 O          26.4296    3.9173  -10.7333 O.2       7 UNK        -0.5186 
     49 N          26.7208    1.7485  -10.1287 N.am      8 UNK        -0.4240 
     50 CA         27.5800    1.3487  -11.2465 C.3       8 UNK         0.0235 
     51 CB         27.6059   -0.1863  -11.3361 C.3       8 UNK        -0.2000 
     52 C          29.0177    1.8909  -11.1468 C.2       8 UNK         0.4941 
     53 O          29.6936    1.9609  -12.1739 O.2       8 UNK        -0.5273 
     54 N          29.4613    2.2262   -9.9242 N.am      9 UNK        -0.4262 
     55 CA         30.8340    2.5636   -9.5272 C.3       9 UNK         0.0264 
     56 CB         31.2924    3.8923  -10.1645 C.3       9 UNK        -0.1955 
     57 C          31.7882    1.3858   -9.8029 C.2       9 UNK         0.5031 
     58 O          32.7955    1.5467  -10.4949 O.2       9 UNK        -0.5390 
     59 N          31.4030    0.2045   -9.2980 N.am      10 UNK        -0.4204 
     60 CA         32.0213   -1.0878   -9.6086 C.3       10 UNK         0.0237 
     61 CB         31.1633   -2.2152   -9.0155 C.3       10 UNK        -0.1985 
     62 C          33.4900   -1.2294   -9.1694 C.2       10 UNK         0.4970 
     63 O          34.2687   -1.8447   -9.8995 O.2       10 UNK        -0.4914 
     64 N          33.8439   -0.6723   -8.0042 N.am      11 UNK        -0.4285 
     65 CA         35.2285   -0.6270   -7.5088 C.3       11 UNK         0.1007 
     66 C          35.9621    0.6115   -8.0831 C.2       11 UNK         0.5703 
     67 N          37.1516    0.4328   -8.6414 N.am      11 UNK        -0.7361 
     68 O          35.4783    1.7379   -7.9861 O.2       11 UNK        -0.4986 
     69 C69        35.3068   -0.6450   -5.9599 C.3       12 UNK        -0.0947 
     70 S70        34.6293   -2.1819   -5.2471 S.3       12 UNK        -0.2240 
     71 C71        33.1658   -1.5259   -4.3919 C.3       12 UNK         0.0194 
     72 H72        24.0560   -1.8484    4.1749 H         1 UNK         0.0906 
     73 H73        25.6412   -2.3462    4.7692 H         1 UNK         0.0906 
     74 H74        25.1782   -0.6441    4.8138 H         1 UNK         0.0906 
     75 H75        27.0286   -2.8349    3.0800 H         1 UNK         0.3140 
     76 H76        27.4215   -1.0383    0.8485 H         1 UNK         0.1085 
     77 H77        29.2503   -2.4198    2.0494 H         1 UNK         0.0836 
     78 H78        28.6481   -3.8253    1.2179 H         1 UNK         0.0836 
     79 H79        30.9694   -4.2978   -0.3797 H         1 UNK         0.0731 
     80 H80        29.3305   -4.4979   -0.9655 H         1 UNK         0.0731 
     81 H81        32.1861   -2.2111   -1.9304 H         1 UNK         0.1312 
     82 H82        31.8782   -3.2060   -6.0825 H         1 UNK         0.1406 
     83 H83        29.2841   -5.0911   -3.2413 H         1 UNK         0.1631 
     84 H84        29.6887   -6.0101   -5.6885 H         1 UNK         0.0717 
     85 H85        30.3827   -4.8947   -6.8383 H         1 UNK         0.0717 
     86 H86        28.2635   -2.1321   -5.0911 H         1 UNK         0.0934 
     87 H87        29.5129   -2.2627   -6.2917 H         1 UNK         0.0934 
     88 H88        27.9033   -1.9163   -8.1296 H         1 UNK         0.0739 
     89 H89        25.8930   -2.2081   -6.1220 H         1 UNK         0.3093 
     90 H90        23.2291   -0.7061   -7.9903 H         1 UNK         0.0818 
     91 H91        22.2614   -2.9498   -7.5697 H         1 UNK         0.0819 
     92 H92        23.4862   -3.0503   -8.8224 H         1 UNK         0.0819 
     93 H93        23.8560   -3.6049   -7.1958 H         1 UNK         0.0819 
     94 H94        23.2816   -1.9305   -5.4163 H         1 UNK         0.3041 
     95 H95        24.1195    0.9673   -3.5247 H         1 UNK         0.0784 
     96 H96        21.6937    1.2552   -4.0643 H         1 UNK         0.0793 
     97 H97        21.4311   -0.4710   -3.8588 H         1 UNK         0.0793 
     98 H98        21.9187    0.5234   -2.4854 H         1 UNK         0.0793 
     99 H99        23.3322   -1.5630   -2.6128 H         1 UNK         0.3024 
    100 H100       24.6528   -3.1190   -1.8941 H         1 UNK         0.1171 
    101 H101       25.7626   -4.1159   -3.9373 H         1 UNK         0.0786 
    102 H102       26.4664   -4.7064   -2.4392 H         1 UNK         0.0786 
    103 H103       27.3089   -3.4840   -3.3829 H         1 UNK         0.0786 
    104 H104       27.0414   -1.4869   -1.3711 H         1 UNK         0.2977 
    105 H105       26.8608    0.1305   -5.3851 H         1 UNK         0.3127 
    106 H106       28.8093    2.1754   -5.6933 H         1 UNK         0.0770 
    107 H107       25.9878    2.3339   -4.5015 H         1 UNK         0.0814 
    108 H108       27.2779    3.5005   -4.2515 H         1 UNK         0.0814 
    109 H109       27.4455    1.8651   -3.6299 H         1 UNK         0.0814 
    110 H110       25.4801    1.8717   -7.0305 H         1 UNK         0.2983 
    111 H111       25.4600    4.3206   -8.4701 H         1 UNK         0.0947 
    112 H112       23.5276    3.2762   -9.6766 H         1 UNK         0.0806 
    113 H113       23.3991    3.0520   -7.9389 H         1 UNK         0.0806 
    114 H114       23.9171    1.7156   -8.9634 H         1 UNK         0.0806 
    115 H115       26.4558    1.0190   -9.4715 H         1 UNK         0.3000 
    116 H116       27.1447    1.7391  -12.1689 H         1 UNK         0.0850 
    117 H117       28.2159   -0.5207  -12.1764 H         1 UNK         0.0810 
    118 H118       26.6045   -0.5923  -11.4806 H         1 UNK         0.0810 
    119 H119       28.0210   -0.6340  -10.4321 H         1 UNK         0.0810 
    120 H120       28.8227    2.0797   -9.1519 H         1 UNK         0.3040 
    121 H121       30.8155    2.7045   -8.4453 H         1 UNK         0.0766 
    122 H122       31.3727    3.8195  -11.2494 H         1 UNK         0.0812 
    123 H123       30.5992    4.7009   -9.9325 H         1 UNK         0.0812 
    124 H124       32.2726    4.1851   -9.7865 H         1 UNK         0.0812 
    125 H125       30.5454    0.1852   -8.7480 H         1 UNK         0.3205 
    126 H126       32.0040   -1.1939  -10.6954 H         1 UNK         0.0754 
    127 H127       31.5935   -3.1945   -9.2302 H         1 UNK         0.0769 
    128 H128       30.1543   -2.2065   -9.4282 H         1 UNK         0.0769 
    129 H129       31.0846   -2.1203   -7.9347 H         1 UNK         0.0769 
    130 H130       33.1619   -0.1385   -7.4882 H         1 UNK         0.2981 
    131 H131       35.7511   -1.5199   -7.8592 H         1 UNK         0.0541 
    132 H132       37.5599   -0.4861   -8.7166 H         1 UNK         0.3459 
    133 H133       37.6470    1.2321   -9.0046 H         1 UNK         0.3459 
    134 H134       34.8004    0.2239   -5.5355 H         1 UNK         0.0612 
    135 H135       36.3467   -0.5738   -5.6356 H         1 UNK         0.0612 
    136 H136       33.4907   -0.9899   -3.4988 H         1 UNK         0.0624 
    137 H137       32.6702   -0.7940   -5.0312 H         1 UNK         0.0624 
@<TRIPOS>BOND
     1    1    2 1    
     2    1   72 1    
     3    1   73 1    
     4    1   74 1    
     5    2    3 2    
     6    2    4 am   BACKBONE|DICT|INTERRES
     7    4    5 1    
     8    4   75 1    
     9    5    6 1    
    10    5   35 1    
    11    5   76 1    
    12    6    7 1    
    13    6   77 1    
    14    6   78 1    
    15    7    8 1    
    16    8    9 1    
    17    8   79 1    
    18    8   80 1    
    19    9   10 ar   
    20    9   14 ar   
    21   10   11 ar   
    22   10   81 1    
    23   11   12 ar   
    24   11   71 1    
    25   12   13 ar   
    26   12   82 1    
    27   13   14 ar   
    28   13   15 1    
    29   14   83 1    
    30   15   16 1    
    31   15   84 1    
    32   15   85 1    
    33   16   17 1    
    34   17   18 1    
    35   17   86 1    
    36   17   87 1    
    37   18   19 1    
    38   18   37 1    
    39   18   88 1    
    40   19   20 am   BACKBONE|DICT|INTERRES
    41   19   89 1    
    42   20   21 2    
    43   20   22 1    
    44   22   23 1    
    45   22   24 1    
    46   22   90 1    
    47   23   91 1    
    48   23   92 1    
    49   23   93 1    
    50   24   25 am   BACKBONE|DICT|INTERRES
    51   24   94 1    
    52   25   26 2    
    53   25   27 1    
    54   27   28 1    
    55   27   29 1    
    56   27   95 1    
    57   28   96 1    
    58   28   97 1    
    59   28   98 1    
    60   29   30 am   BACKBONE|DICT|INTERRES
    61   29   99 1    
    62   30   31 2    
    63   30   32 1    
    64   32   33 1    
    65   32   34 1    
    66   32  100 1    
    67   33  101 1    
    68   33  102 1    
    69   33  103 1    
    70   34   35 am   BACKBONE|DICT|INTERRES
    71   34  104 1    
    72   35   36 2    
    73   37   38 2    
    74   37   39 am   BACKBONE|DICT|INTERRES
    75   39   40 1    
    76   39  105 1    
    77   40   41 1    
    78   40   42 1    
    79   40  106 1    
    80   41  107 1    
    81   41  108 1    
    82   41  109 1    
    83   42   43 2    
    84   42   44 am   BACKBONE|DICT|INTERRES
    85   44   45 1    
    86   44  110 1    
    87   45   46 1    
    88   45   47 1    
    89   45  111 1    
    90   46  112 1    
    91   46  113 1    
    92   46  114 1    
    93   47   48 2    
    94   47   49 am   BACKBONE|DICT|INTERRES
    95   49   50 1    
    96   49  115 1    
    97   50   51 1    
    98   50   52 1    
    99   50  116 1    
   100   51  117 1    
   101   51  118 1    
   102   51  119 1    
   103   52   53 2    
   104   52   54 am   BACKBONE|DICT|INTERRES
   105   54   55 1    
   106   54  120 1    
   107   55   56 1    
   108   55   57 1    
   109   55  121 1    
   110   56  122 1    
   111   56  123 1    
   112   56  124 1    
   113   57   58 2    
   114   57   59 am   BACKBONE|DICT|INTERRES
   115   59   60 1    
   116   59  125 1    
   117   60   61 1    
   118   60   62 1    
   119   60  126 1    
   120   61  127 1    
   121   61  128 1    
   122   61  129 1    
   123   62   63 2    
   124   62   64 am   BACKBONE|DICT|INTERRES
   125   64   65 1    
   126   64  130 1    
   127   65   66 1    
   128   65   69 1    
   129   65  131 1    
   130   66   67 am   BACKBONE|DICT|INTERRES
   131   66   68 2    
   132   67  132 1    
   133   67  133 1    
   134   69   70 1    
   135   69  134 1    
   136   69  135 1    
   137   70   71 1    
   138   71  136 1    
   139   71  137 1    
@<TRIPOS>SUBSTRUCTURE
     1 UNK         1 GROUP             0       ****    0 ROOT    
