@<TRIPOS>MOLECULE
3R137
137   139    1
SMALL
USER_CHARGES


@<TRIPOS>ATOM
      1 CA         27.4513   -6.3489   -4.8625 C.3       0 UNK        -0.2020 
      2 C          27.1426   -5.4236   -3.6960 C.2       0 UNK         0.4855 
      3 O          26.0070   -5.3951   -3.2195 O.2       0 UNK        -0.5197 
      4 N          28.1438   -4.6671   -3.2312 N.am      1 UNK        -0.4892 
      5 CA         28.0108   -3.6572   -2.1777 C.3       1 UNK         0.0835 
      6 C6         29.3789   -3.0787   -1.7608 C.3       12 UNK        -0.0855 
      7 S7         30.5344   -4.2893   -1.0463 S.3       12 UNK        -0.2931 
      8 C8         31.7708   -3.1544   -0.3305 C.3       12 UNK         0.0378 
      9 C9         32.3727   -2.2323   -1.3845 C.ar      12 UNK        -0.0802 
     10 C10        33.4469   -2.6676   -2.1641 C.ar      12 UNK        -0.0944 
     11 C11        33.9953   -1.8363   -3.1450 C.ar      12 UNK        -0.0787 
     12 C12        33.4572   -0.5612   -3.3462 C.ar      12 UNK        -0.0862 
     13 C13        32.3727   -0.1175   -2.5820 C.ar      12 UNK        -0.0733 
     14 C14        31.8475   -0.9511   -1.5905 C.ar      12 UNK        -0.0832 
     15 C15        31.7893    1.2715   -2.8100 C.3       12 UNK         0.0240 
     16 S16        31.0521    1.4561   -4.4661 S.3       12 UNK        -0.2522 
     17 C17        29.4280    0.6382   -4.2876 C.3       12 UNK        -0.0967 
     18 CA         28.5015    0.9289   -5.5031 C.3       5 UNK         0.0660 
     19 N          27.6154   -0.2031   -5.7957 N.am      5 UNK        -0.4015 
     20 C          26.9611   -0.3924   -6.9502 C.2       4 UNK         0.4946 
     21 O          26.8496    0.4663   -7.8231 O.2       4 UNK        -0.5353 
     22 CA         26.2999   -1.7606   -7.1627 C.3       4 UNK         0.0277 
     23 CB         27.3541   -2.8736   -7.2861 C.3       4 UNK        -0.1981 
     24 N          25.3973   -2.0640   -6.0576 N.am      4 UNK        -0.4209 
     25 C          24.0670   -1.9109   -6.0935 C.2       3 UNK         0.4942 
     26 O          23.4371   -1.5966   -7.1041 O.2       3 UNK        -0.5208 
     27 CA         23.2979   -2.1351   -4.7764 C.3       3 UNK         0.0250 
     28 CB         22.7400   -3.5666   -4.7200 C.3       3 UNK        -0.1990 
     29 N          24.0889   -1.8819   -3.5678 N.am      3 UNK        -0.4232 
     30 C          24.6605   -0.7109   -3.2520 C.2       2 UNK         0.4993 
     31 O          24.5732    0.3043   -3.9399 O.2       2 UNK        -0.5286 
     32 CA         25.5492   -0.6867   -1.9981 C.3       2 UNK         0.0209 
     33 CB         24.7114   -0.3657   -0.7504 C.3       2 UNK        -0.1931 
     34 N          26.3223   -1.9160   -1.7712 N.am      2 UNK        -0.4546 
     35 C          27.1419   -2.4867   -2.6661 C.2       1 UNK         0.5154 
     36 O          27.2756   -2.0859   -3.8248 O.2       1 UNK        -0.5181 
     37 C          27.7814    2.2954   -5.3999 C.2       5 UNK         0.5014 
     38 O          28.4318    3.3274   -5.5745 O.2       5 UNK        -0.5248 
     39 N          26.4644    2.3118   -5.1372 N.am      6 UNK        -0.4434 
     40 CA         25.6574    3.5371   -5.1902 C.3       6 UNK         0.0363 
     41 CB         24.4682    3.4210   -4.2230 C.3       6 UNK        -0.1936 
     42 C          25.1547    3.8593   -6.6104 C.2       6 UNK         0.5081 
     43 O          24.7476    4.9972   -6.8483 O.2       6 UNK        -0.5248 
     44 N          25.1549    2.8712   -7.5163 N.am      7 UNK        -0.4718 
     45 CA         24.6191    2.9889   -8.8747 C.3       7 UNK         0.0273 
     46 CB         23.8125    1.7212   -9.2033 C.3       7 UNK        -0.1935 
     47 C          25.7212    3.2035   -9.9227 C.2       7 UNK         0.5018 
     48 O          25.4923    3.9263  -10.8938 O.2       7 UNK        -0.5186 
     49 N          26.8823    2.5717   -9.7242 N.am      8 UNK        -0.4240 
     50 CA         28.0332    2.5945  -10.6232 C.3       8 UNK         0.0235 
     51 CB         27.9248    1.4040  -11.5971 C.3       8 UNK        -0.2000 
     52 C          29.3295    2.5370   -9.8029 C.2       8 UNK         0.4941 
     53 O          29.2834    2.4447   -8.5774 O.2       8 UNK        -0.5273 
     54 N          30.4758    2.5741  -10.4940 N.am      9 UNK        -0.4262 
     55 CA         31.8099    2.4616   -9.8904 C.3       9 UNK         0.0264 
     56 CB         32.8484    3.0185  -10.8799 C.3       9 UNK        -0.1955 
     57 C          32.1869    1.0274   -9.4602 C.2       9 UNK         0.5031 
     58 O          33.2142    0.8528   -8.8026 O.2       9 UNK        -0.5390 
     59 N          31.3899    0.0289   -9.8650 N.am      10 UNK        -0.4204 
     60 CA         31.5891   -1.3883   -9.5634 C.3       10 UNK         0.0237 
     61 CB         30.6509   -2.2221  -10.4524 C.3       10 UNK        -0.1985 
     62 C          31.3410   -1.7095   -8.0803 C.2       10 UNK         0.4970 
     63 O          30.4023   -1.1783   -7.4874 O.2       10 UNK        -0.4914 
     64 N          32.1567   -2.6181   -7.5364 N.am      11 UNK        -0.4285 
     65 CA         32.0472   -3.1331   -6.1609 C.3       11 UNK         0.1007 
     66 C          30.8846   -4.1472   -5.9532 C.2       11 UNK         0.5703 
     67 N          30.2768   -4.6861   -7.0046 N.am      11 UNK        -0.7361 
     68 O          30.5261   -4.4519   -4.8194 O.2       11 UNK        -0.4986 
     69 C69        33.3941   -3.7379   -5.6832 C.3       12 UNK        -0.0947 
     70 S70        34.7561   -2.5221   -5.7395 S.3       12 UNK        -0.2240 
     71 C71        35.1748   -2.3174   -3.9790 C.3       12 UNK         0.0194 
     72 H72        28.5242   -6.4473   -5.0255 H         1 UNK         0.0906 
     73 H73        27.0487   -7.3432   -4.6716 H         1 UNK         0.0906 
     74 H74        26.9967   -5.9650   -5.7752 H         1 UNK         0.0906 
     75 H75        29.0495   -4.6875   -3.6971 H         1 UNK         0.3140 
     76 H76        27.5340   -4.1230   -1.3127 H         1 UNK         0.1085 
     77 H77        29.2399   -2.2837   -1.0250 H         1 UNK         0.0836 
     78 H78        29.8662   -2.6227   -2.6261 H         1 UNK         0.0836 
     79 H79        32.5596   -3.7417    0.1421 H         1 UNK         0.0731 
     80 H80        31.3085   -2.5707    0.4671 H         1 UNK         0.0731 
     81 H81        33.8506   -3.6589   -2.0089 H         1 UNK         0.1312 
     82 H82        33.8743    0.0820   -4.1093 H         1 UNK         0.1406 
     83 H83        31.0184   -0.6081   -0.9870 H         1 UNK         0.1631 
     84 H84        32.5889    2.0059   -2.7037 H         1 UNK         0.0717 
     85 H85        31.0458    1.5203   -2.0513 H         1 UNK         0.0717 
     86 H86        29.6284   -0.4322   -4.2101 H         1 UNK         0.0934 
     87 H87        28.9567    0.9273   -3.3465 H         1 UNK         0.0934 
     88 H88        29.1421    1.0044   -6.3843 H         1 UNK         0.0739 
     89 H89        27.5973   -0.9489   -5.1010 H         1 UNK         0.3093 
     90 H90        25.7475   -1.7207   -8.1041 H         1 UNK         0.0818 
     91 H91        27.9366   -2.9893   -6.3712 H         1 UNK         0.0819 
     92 H92        26.8903   -3.8341   -7.5095 H         1 UNK         0.0819 
     93 H93        28.0563   -2.6565   -8.0919 H         1 UNK         0.0819 
     94 H94        25.8374   -2.2774   -5.1682 H         1 UNK         0.3041 
     95 H95        22.4583   -1.4368   -4.7702 H         1 UNK         0.0784 
     96 H96        22.1296   -3.7834   -5.5979 H         1 UNK         0.0793 
     97 H97        23.5390   -4.3090   -4.6863 H         1 UNK         0.0793 
     98 H98        22.1077   -3.7129   -3.8441 H         1 UNK         0.0793 
     99 H99        24.2476   -2.6691   -2.9549 H         1 UNK         0.3024 
    100 H100       26.2693    0.1224   -2.1400 H         1 UNK         0.1171 
    101 H101       25.3427   -0.2215    0.1266 H         1 UNK         0.0786 
    102 H102       24.1407    0.5539   -0.8896 H         1 UNK         0.0786 
    103 H103       23.9990   -1.1606   -0.5258 H         1 UNK         0.0786 
    104 H104       26.2745   -2.3063   -0.8405 H         1 UNK         0.2977 
    105 H105       25.9666    1.4461   -4.9514 H         1 UNK         0.3127 
    106 H106       26.2631    4.3830   -4.8578 H         1 UNK         0.0770 
    107 H107       23.7422    2.6816   -4.5624 H         1 UNK         0.0814 
    108 H108       23.9416    4.3727   -4.1413 H         1 UNK         0.0814 
    109 H109       24.7922    3.1418   -3.2204 H         1 UNK         0.0814 
    110 H110       25.5848    1.9836   -7.2792 H         1 UNK         0.2983 
    111 H111       23.9383    3.8410   -8.9359 H         1 UNK         0.0947 
    112 H112       23.3846    1.7789  -10.2051 H         1 UNK         0.0806 
    113 H113       22.9863    1.5851   -8.5052 H         1 UNK         0.0806 
    114 H114       24.4315    0.8237   -9.1639 H         1 UNK         0.0806 
    115 H115       27.0007    1.9896   -8.8954 H         1 UNK         0.3000 
    116 H116       28.0427    3.5302  -11.1865 H         1 UNK         0.0850 
    117 H117       28.7385    1.3991  -12.3228 H         1 UNK         0.0810 
    118 H118       26.9950    1.4438  -12.1651 H         1 UNK         0.0810 
    119 H119       27.9474    0.4506  -11.0671 H         1 UNK         0.0810 
    120 H120       30.4405    2.6651  -11.4997 H         1 UNK         0.3040 
    121 H121       31.8340    3.0805   -8.9906 H         1 UNK         0.0766 
    122 H122       32.6358    4.0562  -11.1375 H         1 UNK         0.0812 
    123 H123       32.8770    2.4400  -11.8041 H         1 UNK         0.0812 
    124 H124       33.8509    2.9941  -10.4501 H         1 UNK         0.0812 
    125 H125       30.5474    0.2722  -10.3618 H         1 UNK         0.3205 
    126 H126       32.6218   -1.6411   -9.8134 H         1 UNK         0.0754 
    127 H127       30.7977   -3.2898  -10.2850 H         1 UNK         0.0769 
    128 H128       30.8348   -2.0347  -11.5107 H         1 UNK         0.0769 
    129 H129       29.6016   -2.0016  -10.2495 H         1 UNK         0.0769 
    130 H130       32.9031   -3.0086   -8.0917 H         1 UNK         0.2981 
    131 H131       31.8196   -2.2861   -5.5097 H         1 UNK         0.0541 
    132 H132       30.5687   -4.4498   -7.9379 H         1 UNK         0.3459 
    133 H133       29.5338   -5.3487   -6.8618 H         1 UNK         0.3459 
    134 H134       33.3038   -4.1312   -4.6693 H         1 UNK         0.0612 
    135 H135       33.6726   -4.5872   -6.3093 H         1 UNK         0.0612 
    136 H136       35.9892   -1.5968   -3.8936 H         1 UNK         0.0624 
    137 H137       35.5619   -3.2636   -3.5976 H         1 UNK         0.0624 
@<TRIPOS>BOND
     1    1    2 1    
     2    1   72 1    
     3    1   73 1    
     4    1   74 1    
     5    2    3 2    
     6    2    4 am   BACKBONE|DICT|INTERRES
     7    4    5 1    
     8    4   75 1    
     9    5    6 1    
    10    5   35 1    
    11    5   76 1    
    12    6    7 1    
    13    6   77 1    
    14    6   78 1    
    15    7    8 1    
    16    8    9 1    
    17    8   79 1    
    18    8   80 1    
    19    9   10 ar   
    20    9   14 ar   
    21   10   11 ar   
    22   10   81 1    
    23   11   12 ar   
    24   11   71 1    
    25   12   13 ar   
    26   12   82 1    
    27   13   14 ar   
    28   13   15 1    
    29   14   83 1    
    30   15   16 1    
    31   15   84 1    
    32   15   85 1    
    33   16   17 1    
    34   17   18 1    
    35   17   86 1    
    36   17   87 1    
    37   18   19 1    
    38   18   37 1    
    39   18   88 1    
    40   19   20 am   BACKBONE|DICT|INTERRES
    41   19   89 1    
    42   20   21 2    
    43   20   22 1    
    44   22   23 1    
    45   22   24 1    
    46   22   90 1    
    47   23   91 1    
    48   23   92 1    
    49   23   93 1    
    50   24   25 am   BACKBONE|DICT|INTERRES
    51   24   94 1    
    52   25   26 2    
    53   25   27 1    
    54   27   28 1    
    55   27   29 1    
    56   27   95 1    
    57   28   96 1    
    58   28   97 1    
    59   28   98 1    
    60   29   30 am   BACKBONE|DICT|INTERRES
    61   29   99 1    
    62   30   31 2    
    63   30   32 1    
    64   32   33 1    
    65   32   34 1    
    66   32  100 1    
    67   33  101 1    
    68   33  102 1    
    69   33  103 1    
    70   34   35 am   BACKBONE|DICT|INTERRES
    71   34  104 1    
    72   35   36 2    
    73   37   38 2    
    74   37   39 am   BACKBONE|DICT|INTERRES
    75   39   40 1    
    76   39  105 1    
    77   40   41 1    
    78   40   42 1    
    79   40  106 1    
    80   41  107 1    
    81   41  108 1    
    82   41  109 1    
    83   42   43 2    
    84   42   44 am   BACKBONE|DICT|INTERRES
    85   44   45 1    
    86   44  110 1    
    87   45   46 1    
    88   45   47 1    
    89   45  111 1    
    90   46  112 1    
    91   46  113 1    
    92   46  114 1    
    93   47   48 2    
    94   47   49 am   BACKBONE|DICT|INTERRES
    95   49   50 1    
    96   49  115 1    
    97   50   51 1    
    98   50   52 1    
    99   50  116 1    
   100   51  117 1    
   101   51  118 1    
   102   51  119 1    
   103   52   53 2    
   104   52   54 am   BACKBONE|DICT|INTERRES
   105   54   55 1    
   106   54  120 1    
   107   55   56 1    
   108   55   57 1    
   109   55  121 1    
   110   56  122 1    
   111   56  123 1    
   112   56  124 1    
   113   57   58 2    
   114   57   59 am   BACKBONE|DICT|INTERRES
   115   59   60 1    
   116   59  125 1    
   117   60   61 1    
   118   60   62 1    
   119   60  126 1    
   120   61  127 1    
   121   61  128 1    
   122   61  129 1    
   123   62   63 2    
   124   62   64 am   BACKBONE|DICT|INTERRES
   125   64   65 1    
   126   64  130 1    
   127   65   66 1    
   128   65   69 1    
   129   65  131 1    
   130   66   67 am   BACKBONE|DICT|INTERRES
   131   66   68 2    
   132   67  132 1    
   133   67  133 1    
   134   69   70 1    
   135   69  134 1    
   136   69  135 1    
   137   70   71 1    
   138   71  136 1    
   139   71  137 1    
@<TRIPOS>SUBSTRUCTURE
     1 UNK         1 GROUP             0       ****    0 ROOT    
