@<TRIPOS>MOLECULE
3R137
137   139    1
SMALL
USER_CHARGES


@<TRIPOS>ATOM
      1 CA         25.2310   -6.8508   -0.4092 C.3       0 UNK        -0.2020 
      2 C          25.3285   -5.4090    0.0645 C.2       0 UNK         0.4855 
      3 O          24.3506   -4.8670    0.5814 O.2       0 UNK        -0.5197 
      4 N          26.4997   -4.7815   -0.1101 N.am      1 UNK        -0.4892 
      5 CA         26.7626   -3.3679    0.1836 C.3       1 UNK         0.0835 
      6 C6         28.2624   -2.9672    0.0116 C.3       12 UNK        -0.0855 
      7 S7         29.2916   -4.0068   -1.0966 S.3       12 UNK        -0.2931 
      8 C8         28.8336   -3.4777   -2.7789 C.3       12 UNK         0.0378 
      9 C9         29.3320   -2.0833   -3.1353 C.ar      12 UNK        -0.0802 
     10 C10        30.5777   -1.9118   -3.7480 C.ar      12 UNK        -0.0944 
     11 C11        30.9924   -0.6431   -4.1671 C.ar      12 UNK        -0.0787 
     12 C12        30.1523    0.4573   -3.9733 C.ar      12 UNK        -0.0862 
     13 C13        28.9072    0.2975   -3.3603 C.ar      12 UNK        -0.0733 
     14 C14        28.5149   -0.9696   -2.9253 C.ar      12 UNK        -0.0832 
     15 C15        27.9724    1.4859   -3.2003 C.3       12 UNK         0.0240 
     16 S16        26.9525    1.7268   -4.6907 S.3       12 UNK        -0.2522 
     17 C17        25.6639    0.4421   -4.5075 C.3       12 UNK        -0.0967 
     18 CA         25.9722   -0.8684   -5.2741 C.3       5 UNK         0.0660 
     19 N          25.0581   -1.9423   -4.8896 N.am      5 UNK        -0.4015 
     20 C          25.2894   -3.2473   -5.0931 C.2       4 UNK         0.4946 
     21 O          26.2944   -3.6749   -5.6645 O.2       4 UNK        -0.5353 
     22 CA         24.2469   -4.2418   -4.5495 C.3       4 UNK         0.0277 
     23 CB         24.8806   -5.5911   -4.1585 C.3       4 UNK        -0.1981 
     24 N          23.5554   -3.6949   -3.3811 N.am      4 UNK        -0.4209 
     25 C          22.2272   -3.6471   -3.2109 C.2       3 UNK         0.4942 
     26 O          21.4197   -4.0461   -4.0511 O.2       3 UNK        -0.5208 
     27 CA         21.6886   -3.0732   -1.8843 C.3       3 UNK         0.0250 
     28 CB         21.1301   -4.2019   -1.0016 C.3       3 UNK        -0.1990 
     29 N          22.6787   -2.3155   -1.1142 N.am      3 UNK        -0.4232 
     30 C          23.1355   -1.0987   -1.4436 C.2       2 UNK         0.4993 
     31 O          22.7401   -0.4623   -2.4206 O.2       2 UNK        -0.5286 
     32 CA         24.2582   -0.5078   -0.5670 C.3       2 UNK         0.0209 
     33 CB         23.6603    0.3734    0.5414 C.3       2 UNK        -0.1931 
     34 N          25.1667   -1.4950    0.0361 N.am      2 UNK        -0.4546 
     35 C          25.8280   -2.4520   -0.6312 C.2       1 UNK         0.5154 
     36 O          25.7072   -2.6361   -1.8420 O.2       1 UNK        -0.5181 
     37 C          25.9973   -0.6799   -6.8013 C.2       5 UNK         0.5014 
     38 O          24.9960   -0.2581   -7.3842 O.2       5 UNK        -0.5248 
     39 N          27.1531   -0.9821   -7.4052 N.am      6 UNK        -0.4434 
     40 CA         27.4509   -0.7443   -8.8190 C.3       6 UNK         0.0363 
     41 CB         28.3825   -1.8619   -9.3141 C.3       6 UNK        -0.1936 
     42 C          28.0734    0.6464   -9.0636 C.2       6 UNK         0.5081 
     43 O          28.1890    1.0481  -10.2217 O.2       6 UNK        -0.5248 
     44 N          28.4394    1.3475   -7.9778 N.am      7 UNK        -0.4718 
     45 CA         29.0668    2.6729   -7.8956 C.3       7 UNK         0.0273 
     46 CB         28.2282    3.7382   -8.6341 C.3       7 UNK        -0.1935 
     47 C          30.5395    2.6942   -8.3445 C.2       7 UNK         0.5018 
     48 O          31.0383    1.7417   -8.9499 O.2       7 UNK        -0.5186 
     49 N          31.2162    3.8111   -8.0366 N.am      8 UNK        -0.4240 
     50 CA         32.6455    4.0530   -8.2765 C.3       8 UNK         0.0235 
     51 CB         33.0144    5.4579   -7.7738 C.3       8 UNK        -0.2000 
     52 C          33.0995    3.8721   -9.7352 C.2       8 UNK         0.4941 
     53 O          34.2414    3.4729   -9.9621 O.2       8 UNK        -0.5273 
     54 N          32.1928    4.1233  -10.6900 N.am      9 UNK        -0.4262 
     55 CA         32.3941    3.8871  -12.1215 C.3       9 UNK         0.0264 
     56 CB         31.1947    4.4517  -12.8999 C.3       9 UNK        -0.1955 
     57 C          32.6190    2.4053  -12.4804 C.2       9 UNK         0.5031 
     58 O          33.3009    2.1317  -13.4695 O.2       9 UNK        -0.5390 
     59 N          32.0576    1.4861  -11.6827 N.am      10 UNK        -0.4204 
     60 CA         32.2587    0.0444  -11.8131 C.3       10 UNK         0.0237 
     61 CB         30.9331   -0.6805  -11.5459 C.3       10 UNK        -0.1985 
     62 C          33.3420   -0.4519  -10.8461 C.2       10 UNK         0.4970 
     63 O          34.1671   -1.2727  -11.2495 O.2       10 UNK        -0.4914 
     64 N          33.3193    0.0349   -9.5963 N.am      11 UNK        -0.4285 
     65 CA         34.2739   -0.3517   -8.5440 C.3       11 UNK         0.1007 
     66 C          35.7405    0.0936   -8.8081 C.2       11 UNK         0.5703 
     67 N          35.9847    1.2043   -9.4930 N.am      11 UNK        -0.7361 
     68 O          36.6729   -0.5867   -8.3865 O.2       11 UNK        -0.4986 
     69 C69        33.8183    0.1081   -7.1361 C.3       12 UNK        -0.0947 
     70 S70        32.1854   -0.5406   -6.6522 S.3       12 UNK        -0.2240 
     71 C71        32.3399   -0.4550   -4.8432 C.3       12 UNK         0.0194 
     72 H72        25.0156   -7.5085    0.4323 H         1 UNK         0.0906 
     73 H73        24.4251   -6.9511   -1.1358 H         1 UNK         0.0906 
     74 H74        26.1545   -7.1892   -0.8788 H         1 UNK         0.0906 
     75 H75        27.2700   -5.2639   -0.5528 H         1 UNK         0.3140 
     76 H76        26.5061   -3.2257    1.2360 H         1 UNK         0.1085 
     77 H77        28.7381   -3.0372    0.9911 H         1 UNK         0.0836 
     78 H78        28.3813   -1.9179   -0.2641 H         1 UNK         0.0836 
     79 H79        27.7558   -3.5482   -2.9152 H         1 UNK         0.0731 
     80 H80        29.2541   -4.1966   -3.4838 H         1 UNK         0.0731 
     81 H81        31.2151   -2.7687   -3.9190 H         1 UNK         0.1312 
     82 H82        30.4611    1.4354   -4.3167 H         1 UNK         0.1406 
     83 H83        27.5438   -1.0931   -2.4734 H         1 UNK         0.1631 
     84 H84        28.5573    2.3905   -3.0273 H         1 UNK         0.0717 
     85 H85        27.3351    1.3658   -2.3228 H         1 UNK         0.0717 
     86 H86        25.5390    0.2272   -3.4468 H         1 UNK         0.0934 
     87 H87        24.7101    0.8613   -4.8341 H         1 UNK         0.0934 
     88 H88        26.9665   -1.1963   -4.9762 H         1 UNK         0.0739 
     89 H89        24.1986   -1.6670   -4.4366 H         1 UNK         0.3093 
     90 H90        23.5400   -4.4163   -5.3629 H         1 UNK         0.0818 
     91 H91        25.6403   -5.4651   -3.3858 H         1 UNK         0.0819 
     92 H92        24.1306   -6.2869   -3.7823 H         1 UNK         0.0819 
     93 H93        25.3592   -6.0665   -5.0156 H         1 UNK         0.0819 
     94 H94        24.1676   -3.3148   -2.6609 H         1 UNK         0.3041 
     95 H95        20.8666   -2.3992   -2.1350 H         1 UNK         0.0784 
     96 H96        20.3504   -4.7580   -1.5240 H         1 UNK         0.0793 
     97 H97        21.9059   -4.9154   -0.7209 H         1 UNK         0.0793 
     98 H98        20.6873   -3.8092   -0.0861 H         1 UNK         0.0793 
     99 H99        23.0878   -2.7843   -0.3163 H         1 UNK         0.3024 
    100 H100       24.8631    0.1304   -1.2129 H         1 UNK         0.1171 
    101 H101       24.4384    0.8978    1.0967 H         1 UNK         0.0786 
    102 H102       22.9982    1.1330    0.1227 H         1 UNK         0.0786 
    103 H103       23.0756   -0.2125    1.2518 H         1 UNK         0.0786 
    104 H104       25.3034   -1.4190    1.0343 H         1 UNK         0.2977 
    105 H105       27.9016   -1.3732   -6.8497 H         1 UNK         0.3127 
    106 H106       26.5258   -0.7946   -9.3974 H         1 UNK         0.0770 
    107 H107       29.3614   -1.8160   -8.8344 H         1 UNK         0.0814 
    108 H108       28.5356   -1.7876  -10.3909 H         1 UNK         0.0814 
    109 H109       27.9589   -2.8476   -9.1202 H         1 UNK         0.0814 
    110 H110       28.2957    0.8987   -7.0849 H         1 UNK         0.2983 
    111 H111       29.0635    2.9243   -6.8336 H         1 UNK         0.0947 
    112 H112       28.5780    4.7462   -8.4093 H         1 UNK         0.0806 
    113 H113       27.1805    3.6914   -8.3368 H         1 UNK         0.0806 
    114 H114       28.2743    3.6166   -9.7168 H         1 UNK         0.0806 
    115 H115       30.7240    4.5443   -7.5464 H         1 UNK         0.3000 
    116 H116       33.1979    3.3272   -7.6790 H         1 UNK         0.0850 
    117 H117       34.0774    5.6576   -7.9182 H         1 UNK         0.0810 
    118 H118       32.8103    5.5661   -6.7084 H         1 UNK         0.0810 
    119 H119       32.4623    6.2351   -8.3038 H         1 UNK         0.0810 
    120 H120       31.2811    4.4501  -10.4053 H         1 UNK         0.3040 
    121 H121       33.2890    4.4352  -12.4239 H         1 UNK         0.0766 
    122 H122       31.0745    5.5211  -12.7255 H         1 UNK         0.0812 
    123 H123       30.2631    3.9572  -12.6211 H         1 UNK         0.0812 
    124 H124       31.3275    4.3138  -13.9740 H         1 UNK         0.0812 
    125 H125       31.5408    1.7918  -10.8630 H         1 UNK         0.3205 
    126 H126       32.5748   -0.2012  -12.8292 H         1 UNK         0.0754 
    127 H127       31.0465   -1.7605  -11.6482 H         1 UNK         0.0769 
    128 H128       30.1580   -0.3638  -12.2440 H         1 UNK         0.0769 
    129 H129       30.5739   -0.4807  -10.5368 H         1 UNK         0.0769 
    130 H130       32.5742    0.6673   -9.3186 H         1 UNK         0.2981 
    131 H131       34.2910   -1.4434   -8.5299 H         1 UNK         0.0541 
    132 H132       35.2340    1.8245   -9.7811 H         1 UNK         0.3459 
    133 H133       36.9404    1.4739   -9.6603 H         1 UNK         0.3459 
    134 H134       34.5446   -0.2143   -6.3872 H         1 UNK         0.0612 
    135 H135       33.7845    1.1959   -7.0798 H         1 UNK         0.0612 
    136 H136       32.7607    0.5112   -4.5600 H         1 UNK         0.0624 
    137 H137       33.0470   -1.2136   -4.5040 H         1 UNK         0.0624 
@<TRIPOS>BOND
     1    1    2 1    
     2    1   72 1    
     3    1   73 1    
     4    1   74 1    
     5    2    3 2    
     6    2    4 am   BACKBONE|DICT|INTERRES
     7    4    5 1    
     8    4   75 1    
     9    5    6 1    
    10    5   35 1    
    11    5   76 1    
    12    6    7 1    
    13    6   77 1    
    14    6   78 1    
    15    7    8 1    
    16    8    9 1    
    17    8   79 1    
    18    8   80 1    
    19    9   10 ar   
    20    9   14 ar   
    21   10   11 ar   
    22   10   81 1    
    23   11   12 ar   
    24   11   71 1    
    25   12   13 ar   
    26   12   82 1    
    27   13   14 ar   
    28   13   15 1    
    29   14   83 1    
    30   15   16 1    
    31   15   84 1    
    32   15   85 1    
    33   16   17 1    
    34   17   18 1    
    35   17   86 1    
    36   17   87 1    
    37   18   19 1    
    38   18   37 1    
    39   18   88 1    
    40   19   20 am   BACKBONE|DICT|INTERRES
    41   19   89 1    
    42   20   21 2    
    43   20   22 1    
    44   22   23 1    
    45   22   24 1    
    46   22   90 1    
    47   23   91 1    
    48   23   92 1    
    49   23   93 1    
    50   24   25 am   BACKBONE|DICT|INTERRES
    51   24   94 1    
    52   25   26 2    
    53   25   27 1    
    54   27   28 1    
    55   27   29 1    
    56   27   95 1    
    57   28   96 1    
    58   28   97 1    
    59   28   98 1    
    60   29   30 am   BACKBONE|DICT|INTERRES
    61   29   99 1    
    62   30   31 2    
    63   30   32 1    
    64   32   33 1    
    65   32   34 1    
    66   32  100 1    
    67   33  101 1    
    68   33  102 1    
    69   33  103 1    
    70   34   35 am   BACKBONE|DICT|INTERRES
    71   34  104 1    
    72   35   36 2    
    73   37   38 2    
    74   37   39 am   BACKBONE|DICT|INTERRES
    75   39   40 1    
    76   39  105 1    
    77   40   41 1    
    78   40   42 1    
    79   40  106 1    
    80   41  107 1    
    81   41  108 1    
    82   41  109 1    
    83   42   43 2    
    84   42   44 am   BACKBONE|DICT|INTERRES
    85   44   45 1    
    86   44  110 1    
    87   45   46 1    
    88   45   47 1    
    89   45  111 1    
    90   46  112 1    
    91   46  113 1    
    92   46  114 1    
    93   47   48 2    
    94   47   49 am   BACKBONE|DICT|INTERRES
    95   49   50 1    
    96   49  115 1    
    97   50   51 1    
    98   50   52 1    
    99   50  116 1    
   100   51  117 1    
   101   51  118 1    
   102   51  119 1    
   103   52   53 2    
   104   52   54 am   BACKBONE|DICT|INTERRES
   105   54   55 1    
   106   54  120 1    
   107   55   56 1    
   108   55   57 1    
   109   55  121 1    
   110   56  122 1    
   111   56  123 1    
   112   56  124 1    
   113   57   58 2    
   114   57   59 am   BACKBONE|DICT|INTERRES
   115   59   60 1    
   116   59  125 1    
   117   60   61 1    
   118   60   62 1    
   119   60  126 1    
   120   61  127 1    
   121   61  128 1    
   122   61  129 1    
   123   62   63 2    
   124   62   64 am   BACKBONE|DICT|INTERRES
   125   64   65 1    
   126   64  130 1    
   127   65   66 1    
   128   65   69 1    
   129   65  131 1    
   130   66   67 am   BACKBONE|DICT|INTERRES
   131   66   68 2    
   132   67  132 1    
   133   67  133 1    
   134   69   70 1    
   135   69  134 1    
   136   69  135 1    
   137   70   71 1    
   138   71  136 1    
   139   71  137 1    
@<TRIPOS>SUBSTRUCTURE
     1 UNK         1 GROUP             0       ****    0 ROOT    
