@<TRIPOS>MOLECULE
3R137
137   139    1
SMALL
USER_CHARGES


@<TRIPOS>ATOM
      1 CA         28.2500    0.1428   -0.7358 C.3       0 UNK        -0.2020 
      2 C          28.9749   -0.5987    0.3859 C.2       0 UNK         0.4855 
      3 O          29.4789    0.0525    1.2990 O.2       0 UNK        -0.5197 
      4 N          29.0744   -1.9368    0.3754 N.am      1 UNK        -0.4892 
      5 CA         28.5000   -2.8997   -0.5780 C.3       1 UNK         0.0835 
      6 C6         28.9506   -4.3478   -0.2591 C.3       12 UNK        -0.0855 
      7 S7         30.7689   -4.5071   -0.1436 S.3       12 UNK        -0.2931 
      8 C8         31.1807   -5.5030   -1.6094 C.3       12 UNK         0.0378 
      9 C9         30.9583   -4.7449   -2.9106 C.ar      12 UNK        -0.0802 
     10 C10        31.8680   -3.7643   -3.3233 C.ar      12 UNK        -0.0944 
     11 C11        31.6977   -3.1056   -4.5463 C.ar      12 UNK        -0.0787 
     12 C12        30.5988   -3.4253   -5.3483 C.ar      12 UNK        -0.0862 
     13 C13        29.6854   -4.4036   -4.9463 C.ar      12 UNK        -0.0733 
     14 C14        29.8681   -5.0595   -3.7268 C.ar      12 UNK        -0.0832 
     15 C15        28.5239   -4.7776   -5.8494 C.3       12 UNK         0.0240 
     16 S16        26.9563   -4.0940   -5.2326 S.3       12 UNK        -0.2522 
     17 C17        26.0505   -3.8921   -6.8076 C.3       12 UNK        -0.0967 
     18 CA         25.9929   -2.4529   -7.3953 C.3       5 UNK         0.0660 
     19 N          24.8610   -1.6742   -6.8894 N.am      5 UNK        -0.4015 
     20 C          24.3320   -0.6309   -7.5462 C.2       4 UNK         0.4946 
     21 O          24.7468   -0.2251   -8.6335 O.2       4 UNK        -0.5353 
     22 CA         23.1570    0.0941   -6.8710 C.3       4 UNK         0.0277 
     23 CB         21.8451   -0.6782   -7.0846 C.3       4 UNK        -0.1981 
     24 N          23.3726    0.3182   -5.4401 N.am      4 UNK        -0.4209 
     25 C          24.3053    1.1416   -4.9421 C.2       3 UNK         0.4942 
     26 O          25.0792    1.8015   -5.6347 O.2       3 UNK        -0.5208 
     27 CA         24.4180    1.2150   -3.4099 C.3       3 UNK         0.0250 
     28 CB         23.3766    2.1894   -2.8364 C.3       3 UNK        -0.1990 
     29 N          24.3129   -0.0808   -2.7254 N.am      3 UNK        -0.4232 
     30 C          25.1084   -1.1313   -2.9654 C.2       2 UNK         0.4993 
     31 O          25.9263   -1.1748   -3.8864 O.2       2 UNK        -0.5286 
     32 CA         24.9963   -2.3332   -2.0233 C.3       2 UNK         0.0209 
     33 CB         24.1603   -3.4555   -2.6593 C.3       2 UNK        -0.1931 
     34 N          26.3636   -2.7967   -1.7894 N.am      2 UNK        -0.4546 
     35 C          26.9589   -2.8019   -0.5921 C.2       1 UNK         0.5154 
     36 O          26.3493   -2.6923    0.4753 O.2       1 UNK        -0.5181 
     37 C          27.3084   -1.6531   -7.2943 C.2       5 UNK         0.5014 
     38 O          28.1246   -1.7224   -8.2118 O.2       5 UNK        -0.5248 
     39 N          27.4748   -0.8774   -6.2133 N.am      6 UNK        -0.4434 
     40 CA         28.6166    0.0080   -5.9973 C.3       6 UNK         0.0363 
     41 CB         28.6137    0.5181   -4.5518 C.3       6 UNK        -0.1936 
     42 C          28.6742    1.1745   -6.9903 C.2       6 UNK         0.5081 
     43 O          29.7721    1.5649   -7.3873 O.2       6 UNK        -0.5248 
     44 N          27.5076    1.6897   -7.4023 N.am      7 UNK        -0.4718 
     45 CA         27.3815    2.6725   -8.4794 C.3       7 UNK         0.0273 
     46 CB         25.9567    3.2473   -8.5021 C.3       7 UNK        -0.1935 
     47 C          27.7570    2.0810   -9.8477 C.2       7 UNK         0.5018 
     48 O          28.4664    2.7384  -10.6088 O.2       7 UNK        -0.5186 
     49 N          27.3100    0.8453  -10.1211 N.am      8 UNK        -0.4240 
     50 CA         27.6393    0.0954  -11.3379 C.3       8 UNK         0.0235 
     51 CB         26.7458   -1.1513  -11.4401 C.3       8 UNK        -0.2000 
     52 C          29.1289   -0.2843  -11.4219 C.2       8 UNK         0.4941 
     53 O          29.7321   -0.1325  -12.4847 O.2       8 UNK        -0.5273 
     54 N          29.7006   -0.7430  -10.2993 N.am      9 UNK        -0.4262 
     55 CA         31.1248   -1.0610  -10.1470 C.3       9 UNK         0.0264 
     56 CB         31.3167   -1.8917   -8.8679 C.3       9 UNK        -0.1955 
     57 C          32.0334    0.1813  -10.1003 C.2       9 UNK         0.5031 
     58 O          33.2389    0.0466  -10.3142 O.2       9 UNK        -0.5390 
     59 N          31.4465    1.3482   -9.7990 N.am      10 UNK        -0.4204 
     60 CA         32.0801    2.6534   -9.5941 C.3       10 UNK         0.0237 
     61 CB         32.7697    3.1524  -10.8823 C.3       10 UNK        -0.1985 
     62 C          32.9954    2.6977   -8.3535 C.2       10 UNK         0.4970 
     63 O          33.9696    3.4530   -8.3478 O.2       10 UNK        -0.4914 
     64 N          32.6541    1.9165   -7.3189 N.am      11 UNK        -0.4285 
     65 CA         33.2811    1.9766   -5.9890 C.3       11 UNK         0.1007 
     66 C          32.5236    2.9066   -4.9972 C.2       11 UNK         0.5703 
     67 N          31.3020    3.3389   -5.2944 N.am      11 UNK        -0.7361 
     68 O          33.0652    3.2617   -3.9529 O.2       11 UNK        -0.4986 
     69 C69        33.5649    0.5663   -5.4021 C.3       12 UNK        -0.0947 
     70 S70        32.0835   -0.3879   -4.9286 S.3       12 UNK        -0.2240 
     71 C71        32.7215   -2.0856   -5.0271 C.3       12 UNK         0.0194 
     72 H72        28.7285    1.1079   -0.9198 H         1 UNK         0.0906 
     73 H73        28.2600   -0.4089   -1.6751 H         1 UNK         0.0906 
     74 H74        27.2111    0.3282   -0.4534 H         1 UNK         0.0906 
     75 H75        29.5797   -2.3724    1.1338 H         1 UNK         0.3140 
     76 H76        28.8795   -2.6465   -1.5708 H         1 UNK         0.1085 
     77 H77        28.5691   -5.0418   -1.0103 H         1 UNK         0.0836 
     78 H78        28.5300   -4.6774    0.6934 H         1 UNK         0.0836 
     79 H79        32.2283   -5.8008   -1.5453 H         1 UNK         0.0731 
     80 H80        30.6035   -6.4289   -1.5920 H         1 UNK         0.0731 
     81 H81        32.7186   -3.5290   -2.6980 H         1 UNK         0.1312 
     82 H82        30.4626   -2.9214   -6.2944 H         1 UNK         0.1406 
     83 H83        29.1662   -5.8247   -3.4236 H         1 UNK         0.1631 
     84 H84        28.4401   -5.8629   -5.9220 H         1 UNK         0.0717 
     85 H85        28.7168   -4.4165   -6.8611 H         1 UNK         0.0717 
     86 H86        26.4932   -4.5598   -7.5487 H         1 UNK         0.0934 
     87 H87        25.0395   -4.2775   -6.6661 H         1 UNK         0.0934 
     88 H88        25.8117   -2.5841   -8.4647 H         1 UNK         0.0739 
     89 H89        24.5206   -1.9080   -5.9683 H         1 UNK         0.3093 
     90 H90        23.0567    1.0705   -7.3506 H         1 UNK         0.0818 
     91 H91        20.9915   -0.1254   -6.6920 H         1 UNK         0.0819 
     92 H92        21.6597   -0.8436   -8.1470 H         1 UNK         0.0819 
     93 H93        21.8635   -1.6558   -6.6012 H         1 UNK         0.0819 
     94 H94        22.7815   -0.1865   -4.7958 H         1 UNK         0.3041 
     95 H95        25.4094    1.6137   -3.1841 H         1 UNK         0.0784 
     96 H96        23.4461    3.1645   -3.3211 H         1 UNK         0.0793 
     97 H97        22.3583    1.8260   -2.9804 H         1 UNK         0.0793 
     98 H98        23.5285    2.3506   -1.7690 H         1 UNK         0.0793 
     99 H99        23.6537   -0.1315   -1.9615 H         1 UNK         0.3024 
    100 H100       24.5214   -2.0169   -1.0916 H         1 UNK         0.1171 
    101 H101       23.1284   -3.1358   -2.8088 H         1 UNK         0.0786 
    102 H102       24.1370   -4.3389   -2.0211 H         1 UNK         0.0786 
    103 H103       24.5506   -3.7574   -3.6308 H         1 UNK         0.0786 
    104 H104       26.9242   -2.8552   -2.6315 H         1 UNK         0.2977 
    105 H105       26.7930   -0.9328   -5.4569 H         1 UNK         0.3127 
    106 H106       29.5169   -0.5870   -6.1486 H         1 UNK         0.0770 
    107 H107       27.6879    1.0392   -4.3060 H         1 UNK         0.0814 
    108 H108       29.4401    1.2072   -4.3736 H         1 UNK         0.0814 
    109 H109       28.7328   -0.3151   -3.8617 H         1 UNK         0.0814 
    110 H110       26.6487    1.3771   -6.9615 H         1 UNK         0.2983 
    111 H111       28.0746    3.4909   -8.2714 H         1 UNK         0.0947 
    112 H112       25.8452    3.9851   -9.2978 H         1 UNK         0.0806 
    113 H113       25.7174    3.7454   -7.5625 H         1 UNK         0.0806 
    114 H114       25.2084    2.4716   -8.6672 H         1 UNK         0.0806 
    115 H115       26.7000    0.3907   -9.4508 H         1 UNK         0.3000 
    116 H116       27.4160    0.7395  -12.1912 H         1 UNK         0.0850 
    117 H117       26.9359   -1.6908  -12.3688 H         1 UNK         0.0810 
    118 H118       25.6889   -0.8837  -11.4300 H         1 UNK         0.0810 
    119 H119       26.9214   -1.8461  -10.6190 H         1 UNK         0.0810 
    120 H120       29.1056   -0.9288   -9.4915 H         1 UNK         0.3040 
    121 H121       31.4334   -1.6654  -11.0024 H         1 UNK         0.0766 
    122 H122       32.3578   -2.1945   -8.7483 H         1 UNK         0.0812 
    123 H123       30.7142   -2.8000   -8.8885 H         1 UNK         0.0812 
    124 H124       31.0389   -1.3226   -7.9801 H         1 UNK         0.0812 
    125 H125       30.4565    1.3227   -9.5900 H         1 UNK         0.3205 
    126 H126       31.2615    3.3417   -9.3783 H         1 UNK         0.0754 
    127 H127       33.0938    4.1884  -10.7766 H         1 UNK         0.0769 
    128 H128       32.0909    3.1125  -11.7344 H         1 UNK         0.0769 
    129 H129       33.6519    2.5603  -11.1269 H         1 UNK         0.0769 
    130 H130       31.7837    1.3990   -7.3761 H         1 UNK         0.2981 
    131 H131       34.2623    2.4410   -6.1008 H         1 UNK         0.0541 
    132 H132       30.8338    3.0118   -6.1282 H         1 UNK         0.3459 
    133 H133       30.8270    3.9526   -4.6525 H         1 UNK         0.3459 
    134 H134       34.2012    0.6517   -4.5196 H         1 UNK         0.0612 
    135 H135       34.1401   -0.0135   -6.1257 H         1 UNK         0.0612 
    136 H136       32.9982   -2.3058   -6.0591 H         1 UNK         0.0624 
    137 H137       33.6370   -2.1567   -4.4378 H         1 UNK         0.0624 
@<TRIPOS>BOND
     1    1    2 1    
     2    1   72 1    
     3    1   73 1    
     4    1   74 1    
     5    2    3 2    
     6    2    4 am   BACKBONE|DICT|INTERRES
     7    4    5 1    
     8    4   75 1    
     9    5    6 1    
    10    5   35 1    
    11    5   76 1    
    12    6    7 1    
    13    6   77 1    
    14    6   78 1    
    15    7    8 1    
    16    8    9 1    
    17    8   79 1    
    18    8   80 1    
    19    9   10 ar   
    20    9   14 ar   
    21   10   11 ar   
    22   10   81 1    
    23   11   12 ar   
    24   11   71 1    
    25   12   13 ar   
    26   12   82 1    
    27   13   14 ar   
    28   13   15 1    
    29   14   83 1    
    30   15   16 1    
    31   15   84 1    
    32   15   85 1    
    33   16   17 1    
    34   17   18 1    
    35   17   86 1    
    36   17   87 1    
    37   18   19 1    
    38   18   37 1    
    39   18   88 1    
    40   19   20 am   BACKBONE|DICT|INTERRES
    41   19   89 1    
    42   20   21 2    
    43   20   22 1    
    44   22   23 1    
    45   22   24 1    
    46   22   90 1    
    47   23   91 1    
    48   23   92 1    
    49   23   93 1    
    50   24   25 am   BACKBONE|DICT|INTERRES
    51   24   94 1    
    52   25   26 2    
    53   25   27 1    
    54   27   28 1    
    55   27   29 1    
    56   27   95 1    
    57   28   96 1    
    58   28   97 1    
    59   28   98 1    
    60   29   30 am   BACKBONE|DICT|INTERRES
    61   29   99 1    
    62   30   31 2    
    63   30   32 1    
    64   32   33 1    
    65   32   34 1    
    66   32  100 1    
    67   33  101 1    
    68   33  102 1    
    69   33  103 1    
    70   34   35 am   BACKBONE|DICT|INTERRES
    71   34  104 1    
    72   35   36 2    
    73   37   38 2    
    74   37   39 am   BACKBONE|DICT|INTERRES
    75   39   40 1    
    76   39  105 1    
    77   40   41 1    
    78   40   42 1    
    79   40  106 1    
    80   41  107 1    
    81   41  108 1    
    82   41  109 1    
    83   42   43 2    
    84   42   44 am   BACKBONE|DICT|INTERRES
    85   44   45 1    
    86   44  110 1    
    87   45   46 1    
    88   45   47 1    
    89   45  111 1    
    90   46  112 1    
    91   46  113 1    
    92   46  114 1    
    93   47   48 2    
    94   47   49 am   BACKBONE|DICT|INTERRES
    95   49   50 1    
    96   49  115 1    
    97   50   51 1    
    98   50   52 1    
    99   50  116 1    
   100   51  117 1    
   101   51  118 1    
   102   51  119 1    
   103   52   53 2    
   104   52   54 am   BACKBONE|DICT|INTERRES
   105   54   55 1    
   106   54  120 1    
   107   55   56 1    
   108   55   57 1    
   109   55  121 1    
   110   56  122 1    
   111   56  123 1    
   112   56  124 1    
   113   57   58 2    
   114   57   59 am   BACKBONE|DICT|INTERRES
   115   59   60 1    
   116   59  125 1    
   117   60   61 1    
   118   60   62 1    
   119   60  126 1    
   120   61  127 1    
   121   61  128 1    
   122   61  129 1    
   123   62   63 2    
   124   62   64 am   BACKBONE|DICT|INTERRES
   125   64   65 1    
   126   64  130 1    
   127   65   66 1    
   128   65   69 1    
   129   65  131 1    
   130   66   67 am   BACKBONE|DICT|INTERRES
   131   66   68 2    
   132   67  132 1    
   133   67  133 1    
   134   69   70 1    
   135   69  134 1    
   136   69  135 1    
   137   70   71 1    
   138   71  136 1    
   139   71  137 1    
@<TRIPOS>SUBSTRUCTURE
     1 UNK         1 GROUP             0       ****    0 ROOT    
