@<TRIPOS>MOLECULE
3R137
137   139    1
SMALL
USER_CHARGES


@<TRIPOS>ATOM
      1 CA         24.7324   -6.2471   -4.3844 C.3       0 UNK        -0.2020 
      2 C          25.2049   -5.4603   -3.1717 C.2       0 UNK         0.4855 
      3 O          24.3799   -5.0193   -2.3703 O.2       0 UNK        -0.5197 
      4 N          26.5251   -5.2724   -3.0322 N.am      1 UNK        -0.4892 
      5 CA         27.1509   -4.4682   -1.9758 C.3       1 UNK         0.0835 
      6 C6         28.6947   -4.5898   -2.0154 C.3       12 UNK        -0.0855 
      7 S7         29.4827   -3.9524   -0.4960 S.3       12 UNK        -0.2931 
      8 C8         31.2311   -3.8025   -1.0073 C.3       12 UNK         0.0378 
      9 C9         31.4654   -2.8489   -2.1781 C.ar      12 UNK        -0.0802 
     10 C10        32.3737   -3.1988   -3.1820 C.ar      12 UNK        -0.0944 
     11 C11        32.6072   -2.3424   -4.2616 C.ar      12 UNK        -0.0787 
     12 C12        31.9066   -1.1357   -4.3491 C.ar      12 UNK        -0.0862 
     13 C13        30.9937   -0.7686   -3.3557 C.ar      12 UNK        -0.0733 
     14 C14        30.8011   -1.6197   -2.2595 C.ar      12 UNK        -0.0832 
     15 C15        30.2297    0.5477   -3.4827 C.3       12 UNK         0.0240 
     16 S16        28.4770    0.3799   -3.0142 S.3       12 UNK        -0.2522 
     17 C17        27.6935    1.7583   -3.9047 C.3       12 UNK        -0.0967 
     18 CA         27.2592    1.3651   -5.3386 C.3       5 UNK         0.0660 
     19 N          26.4308    0.1475   -5.3727 N.am      5 UNK        -0.4015 
     20 C          26.0139   -0.4966   -6.4747 C.2       4 UNK         0.4946 
     21 O          26.1832   -0.0750   -7.6192 O.2       4 UNK        -0.5353 
     22 CA         25.2560   -1.8183   -6.2858 C.3       4 UNK         0.0277 
     23 CB         26.2135   -3.0119   -6.4348 C.3       4 UNK        -0.1981 
     24 N          24.5679   -1.8905   -4.9957 N.am      4 UNK        -0.4209 
     25 C          23.3708   -1.3355   -4.7526 C.2       3 UNK         0.4942 
     26 O          22.7263   -0.7146   -5.5985 O.2       3 UNK        -0.5208 
     27 CA         22.7821   -1.4918   -3.3384 C.3       3 UNK         0.0250 
     28 CB         21.8097   -2.6813   -3.2920 C.3       3 UNK        -0.1990 
     29 N          23.8016   -1.6585   -2.3009 N.am      3 UNK        -0.4232 
     30 C          24.6079   -0.6764   -1.8717 C.2       2 UNK         0.4993 
     31 O          24.5345    0.4875   -2.2662 O.2       2 UNK        -0.5286 
     32 CA         25.7022   -1.0564   -0.8556 C.3       2 UNK         0.0209 
     33 CB         25.2059   -0.8144    0.5789 C.3       2 UNK        -0.1931 
     34 N          26.2019   -2.4334   -0.9675 N.am      2 UNK        -0.4546 
     35 C          26.6883   -3.0002   -2.0815 C.2       1 UNK         0.5154 
     36 O          26.7372   -2.4335   -3.1746 O.2       1 UNK        -0.5181 
     37 C          26.6501    2.5857   -6.0602 C.2       5 UNK         0.5014 
     38 O          27.3890    3.5140   -6.3889 O.2       5 UNK        -0.5248 
     39 N          25.3341    2.5664   -6.3155 N.am      6 UNK        -0.4434 
     40 CA         24.6271    3.5464   -7.1424 C.3       6 UNK         0.0363 
     41 CB         23.1140    3.3063   -7.0175 C.3       6 UNK        -0.1936 
     42 C          25.0548    3.5242   -8.6244 C.2       6 UNK         0.5081 
     43 O          24.9046    4.5428   -9.3000 O.2       6 UNK        -0.5248 
     44 N          25.5720    2.3829   -9.1012 N.am      7 UNK        -0.4718 
     45 CA         26.0913    2.1984  -10.4569 C.3       7 UNK         0.0273 
     46 CB         25.2423    1.1470  -11.1917 C.3       7 UNK        -0.1935 
     47 C          27.5678    1.7820  -10.4223 C.2       7 UNK         0.5018 
     48 O          28.3892    2.4012  -11.0992 O.2       7 UNK        -0.5186 
     49 N          27.8888    0.7565   -9.6246 N.am      8 UNK        -0.4240 
     50 CA         29.2285    0.1992   -9.4564 C.3       8 UNK         0.0235 
     51 CB         29.1208   -1.3347   -9.3616 C.3       8 UNK        -0.2000 
     52 C          29.8921    0.8170   -8.2180 C.2       8 UNK         0.4941 
     53 O          30.1697    0.1113   -7.2481 O.2       8 UNK        -0.5273 
     54 N          30.1237    2.1373   -8.2652 N.am      9 UNK        -0.4262 
     55 CA         30.7777    2.9128   -7.2018 C.3       9 UNK         0.0264 
     56 CB         30.7272    4.4073   -7.5555 C.3       9 UNK        -0.1955 
     57 C          32.2261    2.4672   -6.9231 C.2       9 UNK         0.5031 
     58 O          32.6845    2.5640   -5.7842 O.2       9 UNK        -0.5390 
     59 N          32.8932    1.9538   -7.9611 N.am      10 UNK        -0.4204 
     60 CA         34.1283    1.1861   -7.8964 C.3       10 UNK         0.0237 
     61 CB         35.2915    2.0259   -8.4492 C.3       10 UNK        -0.1985 
     62 C          33.9015   -0.0735   -8.7404 C.2       10 UNK         0.4970 
     63 O          33.1756   -0.0106   -9.7374 O.2       10 UNK        -0.4914 
     64 N          34.5198   -1.1827   -8.3275 N.am      11 UNK        -0.4285 
     65 CA         34.3710   -2.5058   -8.9583 C.3       11 UNK         0.1007 
     66 C          35.4509   -2.8125  -10.0366 C.2       11 UNK         0.5703 
     67 N          36.4067   -1.9276  -10.2965 N.am      11 UNK        -0.7361 
     68 O          35.4129   -3.8689  -10.6633 O.2       11 UNK        -0.4986 
     69 C69        34.2853   -3.6316   -7.8923 C.3       12 UNK        -0.0947 
     70 S70        32.8430   -3.4385   -6.7896 S.3       12 UNK        -0.2240 
     71 C71        33.6311   -2.7088   -5.3235 C.3       12 UNK         0.0194 
     72 H72        24.2024   -7.1442   -4.0656 H         1 UNK         0.0906 
     73 H73        25.5615   -6.5507   -5.0233 H         1 UNK         0.0906 
     74 H74        24.0496   -5.6414   -4.9797 H         1 UNK         0.0906 
     75 H75        27.1528   -5.6360   -3.7348 H         1 UNK         0.3140 
     76 H76        26.8006   -4.8764   -1.0250 H         1 UNK         0.1085 
     77 H77        29.0975   -4.0769   -2.8914 H         1 UNK         0.0836 
     78 H78        28.9855   -5.6366   -2.1167 H         1 UNK         0.0836 
     79 H79        31.8150   -3.4535   -0.1547 H         1 UNK         0.0731 
     80 H80        31.6026   -4.8002   -1.2470 H         1 UNK         0.0731 
     81 H81        32.9075   -4.1376   -3.1214 H         1 UNK         0.1312 
     82 H82        32.0712   -0.4825   -5.1965 H         1 UNK         0.1406 
     83 H83        30.1080   -1.3376   -1.4791 H         1 UNK         0.1631 
     84 H84        30.7024    1.3046   -2.8560 H         1 UNK         0.0717 
     85 H85        30.2848    0.9097   -4.5106 H         1 UNK         0.0717 
     86 H86        26.8287    2.0822   -3.3216 H         1 UNK         0.0934 
     87 H87        28.3846    2.6038   -3.9217 H         1 UNK         0.0934 
     88 H88        28.1644    1.1187   -5.8921 H         1 UNK         0.0739 
     89 H89        26.2779   -0.2974   -4.4772 H         1 UNK         0.3093 
     90 H90        24.5131   -1.8872   -7.0837 H         1 UNK         0.0818 
     91 H91        26.6661   -3.0223   -7.4271 H         1 UNK         0.0819 
     92 H92        27.0276   -2.9765   -5.7102 H         1 UNK         0.0819 
     93 H93        25.6909   -3.9597   -6.3091 H         1 UNK         0.0819 
     94 H94        25.0879   -2.3140   -4.2325 H         1 UNK         0.3041 
     95 H95        22.2173   -0.5835   -3.1169 H         1 UNK         0.0784 
     96 H96        21.0096   -2.5593   -4.0236 H         1 UNK         0.0793 
     97 H97        22.3119   -3.6236   -3.5140 H         1 UNK         0.0793 
     98 H98        21.3403   -2.7735   -2.3125 H         1 UNK         0.0793 
     99 H99        23.9440   -2.5950   -1.9445 H         1 UNK         0.3024 
    100 H100       26.5473   -0.3908   -1.0355 H         1 UNK         0.1171 
    101 H101       24.8494    0.2096    0.7013 H         1 UNK         0.0786 
    102 H102       24.3816   -1.4798    0.8388 H         1 UNK         0.0786 
    103 H103       26.0036   -0.9652    1.3065 H         1 UNK         0.0786 
    104 H104       26.1911   -2.9797   -0.1181 H         1 UNK         0.2977 
    105 H105       24.8011    1.7674   -6.0030 H         1 UNK         0.3127 
    106 H106       24.8524    4.5410   -6.7515 H         1 UNK         0.0770 
    107 H107       22.8320    2.3139   -7.3725 H         1 UNK         0.0814 
    108 H108       22.5535    4.0345   -7.6055 H         1 UNK         0.0814 
    109 H109       22.7801    3.4011   -5.9840 H         1 UNK         0.0814 
    110 H110       25.6785    1.5962   -8.4667 H         1 UNK         0.2983 
    111 H111       26.0347    3.1322  -11.0207 H         1 UNK         0.0947 
    112 H112       25.2364    0.1899  -10.6684 H         1 UNK         0.0806 
    113 H113       25.6247    0.9690  -12.1977 H         1 UNK         0.0806 
    114 H114       24.2084    1.4775  -11.2922 H         1 UNK         0.0806 
    115 H115       27.1718    0.3574   -9.0194 H         1 UNK         0.3000 
    116 H116       29.8520    0.4371  -10.3212 H         1 UNK         0.0850 
    117 H117       30.1068   -1.7872   -9.2443 H         1 UNK         0.0810 
    118 H118       28.6735   -1.7574  -10.2612 H         1 UNK         0.0810 
    119 H119       28.5158   -1.6444   -8.5085 H         1 UNK         0.0810 
    120 H120       29.8320    2.6443   -9.0906 H         1 UNK         0.3040 
    121 H121       30.2062    2.7600   -6.2841 H         1 UNK         0.0766 
    122 H122       31.1871    5.0088   -6.7701 H         1 UNK         0.0812 
    123 H123       29.6986    4.7526   -7.6641 H         1 UNK         0.0812 
    124 H124       31.2563    4.6227   -8.4846 H         1 UNK         0.0812 
    125 H125       32.4031    1.8611   -8.8419 H         1 UNK         0.3205 
    126 H126       34.3403    0.8932   -6.8654 H         1 UNK         0.0754 
    127 H127       36.2305    1.4732   -8.4036 H         1 UNK         0.0769 
    128 H128       35.4254    2.9407   -7.8714 H         1 UNK         0.0769 
    129 H129       35.1270    2.3095   -9.4898 H         1 UNK         0.0769 
    130 H130       35.1337   -1.1414   -7.5281 H         1 UNK         0.2981 
    131 H131       33.4251   -2.5229   -9.5033 H         1 UNK         0.0541 
    132 H132       37.0945   -2.1385  -11.0024 H         1 UNK         0.3459 
    133 H133       36.4424   -1.0511   -9.8025 H         1 UNK         0.3459 
    134 H134       35.2023   -3.6782   -7.3022 H         1 UNK         0.0612 
    135 H135       34.1860   -4.6065   -8.3731 H         1 UNK         0.0612 
    136 H136       34.3619   -3.4121   -4.9211 H         1 UNK         0.0624 
    137 H137       34.1876   -1.8163   -5.6103 H         1 UNK         0.0624 
@<TRIPOS>BOND
     1    1    2 1    
     2    1   72 1    
     3    1   73 1    
     4    1   74 1    
     5    2    3 2    
     6    2    4 am   BACKBONE|DICT|INTERRES
     7    4    5 1    
     8    4   75 1    
     9    5    6 1    
    10    5   35 1    
    11    5   76 1    
    12    6    7 1    
    13    6   77 1    
    14    6   78 1    
    15    7    8 1    
    16    8    9 1    
    17    8   79 1    
    18    8   80 1    
    19    9   10 ar   
    20    9   14 ar   
    21   10   11 ar   
    22   10   81 1    
    23   11   12 ar   
    24   11   71 1    
    25   12   13 ar   
    26   12   82 1    
    27   13   14 ar   
    28   13   15 1    
    29   14   83 1    
    30   15   16 1    
    31   15   84 1    
    32   15   85 1    
    33   16   17 1    
    34   17   18 1    
    35   17   86 1    
    36   17   87 1    
    37   18   19 1    
    38   18   37 1    
    39   18   88 1    
    40   19   20 am   BACKBONE|DICT|INTERRES
    41   19   89 1    
    42   20   21 2    
    43   20   22 1    
    44   22   23 1    
    45   22   24 1    
    46   22   90 1    
    47   23   91 1    
    48   23   92 1    
    49   23   93 1    
    50   24   25 am   BACKBONE|DICT|INTERRES
    51   24   94 1    
    52   25   26 2    
    53   25   27 1    
    54   27   28 1    
    55   27   29 1    
    56   27   95 1    
    57   28   96 1    
    58   28   97 1    
    59   28   98 1    
    60   29   30 am   BACKBONE|DICT|INTERRES
    61   29   99 1    
    62   30   31 2    
    63   30   32 1    
    64   32   33 1    
    65   32   34 1    
    66   32  100 1    
    67   33  101 1    
    68   33  102 1    
    69   33  103 1    
    70   34   35 am   BACKBONE|DICT|INTERRES
    71   34  104 1    
    72   35   36 2    
    73   37   38 2    
    74   37   39 am   BACKBONE|DICT|INTERRES
    75   39   40 1    
    76   39  105 1    
    77   40   41 1    
    78   40   42 1    
    79   40  106 1    
    80   41  107 1    
    81   41  108 1    
    82   41  109 1    
    83   42   43 2    
    84   42   44 am   BACKBONE|DICT|INTERRES
    85   44   45 1    
    86   44  110 1    
    87   45   46 1    
    88   45   47 1    
    89   45  111 1    
    90   46  112 1    
    91   46  113 1    
    92   46  114 1    
    93   47   48 2    
    94   47   49 am   BACKBONE|DICT|INTERRES
    95   49   50 1    
    96   49  115 1    
    97   50   51 1    
    98   50   52 1    
    99   50  116 1    
   100   51  117 1    
   101   51  118 1    
   102   51  119 1    
   103   52   53 2    
   104   52   54 am   BACKBONE|DICT|INTERRES
   105   54   55 1    
   106   54  120 1    
   107   55   56 1    
   108   55   57 1    
   109   55  121 1    
   110   56  122 1    
   111   56  123 1    
   112   56  124 1    
   113   57   58 2    
   114   57   59 am   BACKBONE|DICT|INTERRES
   115   59   60 1    
   116   59  125 1    
   117   60   61 1    
   118   60   62 1    
   119   60  126 1    
   120   61  127 1    
   121   61  128 1    
   122   61  129 1    
   123   62   63 2    
   124   62   64 am   BACKBONE|DICT|INTERRES
   125   64   65 1    
   126   64  130 1    
   127   65   66 1    
   128   65   69 1    
   129   65  131 1    
   130   66   67 am   BACKBONE|DICT|INTERRES
   131   66   68 2    
   132   67  132 1    
   133   67  133 1    
   134   69   70 1    
   135   69  134 1    
   136   69  135 1    
   137   70   71 1    
   138   71  136 1    
   139   71  137 1    
@<TRIPOS>SUBSTRUCTURE
     1 UNK         1 GROUP             0       ****    0 ROOT    
