@<TRIPOS>MOLECULE
3R137
137   139    1
SMALL
USER_CHARGES


@<TRIPOS>ATOM
      1 CA         28.5617   -7.1447   -6.4406 C.3       0 UNK        -0.2020 
      2 C          28.2833   -6.7467   -4.9988 C.2       0 UNK         0.4855 
      3 O          27.6625   -7.5152   -4.2628 O.2       0 UNK        -0.5197 
      4 N          28.7449   -5.5588   -4.5884 N.am      1 UNK        -0.4892 
      5 CA         28.4964   -4.9760   -3.2649 C.3       1 UNK         0.0835 
      6 C6         29.5366   -3.8740   -2.9281 C.3       12 UNK        -0.0855 
      7 S7         29.8508   -3.7727   -1.1315 S.3       12 UNK        -0.2931 
      8 C8         31.4253   -2.8611   -1.0761 C.3       12 UNK         0.0378 
      9 C9         31.2779   -1.4388   -1.5967 C.ar      12 UNK        -0.0802 
     10 C10        31.9386   -1.0437   -2.7622 C.ar      12 UNK        -0.0944 
     11 C11        31.7981    0.2586   -3.2501 C.ar      12 UNK        -0.0787 
     12 C12        31.0082    1.1749   -2.5511 C.ar      12 UNK        -0.0862 
     13 C13        30.3338    0.7901   -1.3873 C.ar      12 UNK        -0.0733 
     14 C14        30.4806   -0.5167   -0.9119 C.ar      12 UNK        -0.0832 
     15 C15        29.4488    1.7752   -0.6311 C.3       12 UNK         0.0240 
     16 S16        28.2863    2.6858   -1.7027 S.3       12 UNK        -0.2522 
     17 C17        27.3478    1.3436   -2.5142 C.3       12 UNK        -0.0967 
     18 CA         27.5610    1.2888   -4.0502 C.3       5 UNK         0.0660 
     19 N          27.0827    0.0170   -4.6032 N.am      5 UNK        -0.4015 
     20 C          27.1901   -0.3508   -5.8910 C.2       4 UNK         0.4946 
     21 O          27.8366    0.2831   -6.7245 O.2       4 UNK        -0.5353 
     22 CA         26.3759   -1.5723   -6.3648 C.3       4 UNK         0.0277 
     23 CB         27.2886   -2.7763   -6.6277 C.3       4 UNK        -0.1981 
     24 N          25.2975   -1.9585   -5.4493 N.am      4 UNK        -0.4209 
     25 C          24.2367   -1.1854   -5.1651 C.2       3 UNK         0.4942 
     26 O          24.0484   -0.0857   -5.6853 O.2       3 UNK        -0.5208 
     27 CA         23.2550   -1.6687   -4.0818 C.3       3 UNK         0.0250 
     28 CB         22.0090   -2.2919   -4.7303 C.3       3 UNK        -0.1990 
     29 N          23.8253   -2.6173   -3.1206 N.am      3 UNK        -0.4232 
     30 C          24.8935   -2.4003   -2.3395 C.2       2 UNK         0.4993 
     31 O          25.5356   -1.3483   -2.3364 O.2       2 UNK        -0.5286 
     32 CA         25.3680   -3.5718   -1.4576 C.3       2 UNK         0.0209 
     33 CB         24.3582   -4.7384   -1.3567 C.3       2 UNK        -0.1931 
     34 N          26.6779   -4.0801   -1.8848 N.am      2 UNK        -0.4546 
     35 C          27.0396   -4.4730   -3.1159 C.2       1 UNK         0.5154 
     36 O          26.2850   -4.4322   -4.0933 O.2       1 UNK        -0.5181 
     37 C          26.9204    2.5097   -4.7570 C.2       5 UNK         0.5014 
     38 O          27.6028    3.5143   -4.9624 O.2       5 UNK        -0.5248 
     39 N          25.6389    2.3985   -5.1474 N.am      6 UNK        -0.4434 
     40 CA         24.9202    3.4337   -5.8951 C.3       6 UNK         0.0363 
     41 CB         23.4048    3.2333   -5.7325 C.3       6 UNK        -0.1936 
     42 C          25.3060    3.4651   -7.3842 C.2       6 UNK         0.5081 
     43 O          25.2103    4.5258   -8.0022 O.2       6 UNK        -0.5248 
     44 N          25.7376    2.3205   -7.9363 N.am      7 UNK        -0.4718 
     45 CA         26.2749    2.2170   -9.2965 C.3       7 UNK         0.0273 
     46 CB         26.2711    0.7508   -9.7596 C.3       7 UNK        -0.1935 
     47 C          27.6839    2.8239   -9.3982 C.2       7 UNK         0.5018 
     48 O          27.9925    3.4573  -10.4077 O.2       7 UNK        -0.5186 
     49 N          28.4995    2.6303   -8.3499 N.am      8 UNK        -0.4240 
     50 CA         29.8186    3.2219   -8.0733 C.3       8 UNK         0.0235 
     51 CB         29.7229    4.7563   -7.9708 C.3       8 UNK        -0.2000 
     52 C          30.9632    2.8046   -9.0176 C.2       8 UNK         0.4941 
     53 O          32.1150    2.7801   -8.5817 O.2       8 UNK        -0.5273 
     54 N          30.6558    2.4856  -10.2797 N.am      9 UNK        -0.4262 
     55 CA         31.5869    1.9438  -11.2666 C.3       9 UNK         0.0264 
     56 CB         30.9478    2.0280  -12.6633 C.3       9 UNK        -0.1955 
     57 C          31.9501    0.4967  -10.9009 C.2       9 UNK         0.5031 
     58 O          31.1069   -0.3911  -11.0464 O.2       9 UNK        -0.5390 
     59 N          33.1701    0.2974  -10.3824 N.am      10 UNK        -0.4204 
     60 CA         33.7870   -0.9576   -9.9163 C.3       10 UNK         0.0237 
     61 CB         33.9125   -1.9789  -11.0645 C.3       10 UNK        -0.1985 
     62 C          33.1336   -1.6041   -8.6767 C.2       10 UNK         0.4970 
     63 O          33.8505   -2.2160   -7.8842 O.2       10 UNK        -0.4914 
     64 N          31.8119   -1.4614   -8.5300 N.am      11 UNK        -0.4285 
     65 CA         30.9717   -1.9795   -7.4376 C.3       11 UNK         0.1007 
     66 C          30.8123   -3.5300   -7.4240 C.2       11 UNK         0.5703 
     67 N          31.1166   -4.2362   -8.5063 N.am      11 UNK        -0.7361 
     68 O          30.3736   -4.1033   -6.4295 O.2       11 UNK        -0.4986 
     69 C69        31.3447   -1.4171   -6.0380 C.3       12 UNK        -0.0947 
     70 S70        31.3879    0.4037   -5.9736 S.3       12 UNK        -0.2240 
     71 C71        32.4801    0.6713   -4.5449 C.3       12 UNK         0.0194 
     72 H72        27.6415   -7.4726   -6.9234 H         1 UNK         0.0906 
     73 H73        28.9664   -6.3163   -7.0208 H         1 UNK         0.0906 
     74 H74        29.2764   -7.9665   -6.4727 H         1 UNK         0.0906 
     75 H75        29.2665   -4.9775   -5.2428 H         1 UNK         0.3140 
     76 H76        28.6171   -5.7909   -2.5469 H         1 UNK         0.1085 
     77 H77        29.2330   -2.8961   -3.3090 H         1 UNK         0.0836 
     78 H78        30.4894   -4.0979   -3.4116 H         1 UNK         0.0836 
     79 H79        32.1805   -3.4112   -1.6399 H         1 UNK         0.0731 
     80 H80        31.7781   -2.8275   -0.0444 H         1 UNK         0.0731 
     81 H81        32.5515   -1.7539   -3.2996 H         1 UNK         0.1312 
     82 H82        30.8977    2.1825   -2.9281 H         1 UNK         0.1406 
     83 H83        29.9664   -0.8265   -0.0120 H         1 UNK         0.1631 
     84 H84        30.0867    2.4942   -0.1157 H         1 UNK         0.0717 
     85 H85        28.8731    1.2639    0.1421 H         1 UNK         0.0717 
     86 H86        27.6455    0.3938   -2.0668 H         1 UNK         0.0934 
     87 H87        26.2895    1.4582   -2.2713 H         1 UNK         0.0934 
     88 H88        28.6339    1.3244   -4.2510 H         1 UNK         0.0739 
     89 H89        26.5337   -0.5598   -3.9733 H         1 UNK         0.3093 
     90 H90        25.9050   -1.2986   -7.3111 H         1 UNK         0.0818 
     91 H91        27.9210   -2.5926   -7.4946 H         1 UNK         0.0819 
     92 H92        26.7166   -3.6801   -6.8385 H         1 UNK         0.0819 
     93 H93        27.9388   -2.9806   -5.7771 H         1 UNK         0.0819 
     94 H94        25.4130   -2.8425   -4.9601 H         1 UNK         0.3041 
     95 H95        22.9433   -0.7866   -3.5188 H         1 UNK         0.0784 
     96 H96        21.5454   -1.5972   -5.4325 H         1 UNK         0.0793 
     97 H97        22.2535   -3.1997   -5.2836 H         1 UNK         0.0793 
     98 H98        21.2556   -2.5443   -3.9839 H         1 UNK         0.0793 
     99 H99        23.3928   -3.5288   -3.0795 H         1 UNK         0.3024 
    100 H100       25.4997   -3.1573   -0.4567 H         1 UNK         0.1171 
    101 H101       24.7016   -5.4863   -0.6418 H         1 UNK         0.0786 
    102 H102       23.3844   -4.3923   -1.0069 H         1 UNK         0.0786 
    103 H103       24.2131   -5.2458   -2.3114 H         1 UNK         0.0786 
    104 H104       27.3976   -4.0812   -1.1727 H         1 UNK         0.2977 
    105 H105       25.1451    1.5226   -5.0098 H         1 UNK         0.3127 
    106 H106       25.1762    4.4061   -5.4684 H         1 UNK         0.0770 
    107 H107       23.0661    2.3028   -6.1887 H         1 UNK         0.0814 
    108 H108       22.8542    4.0450   -6.2097 H         1 UNK         0.0814 
    109 H109       23.1146    3.2191   -4.6819 H         1 UNK         0.0814 
    110 H110       25.7993    1.4979   -7.3536 H         1 UNK         0.2983 
    111 H111       25.6218    2.7825   -9.9653 H         1 UNK         0.0947 
    112 H112       26.5800    0.6763  -10.8031 H         1 UNK         0.0806 
    113 H113       25.2760    0.3121   -9.6850 H         1 UNK         0.0806 
    114 H114       26.9563    0.1337   -9.1789 H         1 UNK         0.0806 
    115 H115       28.1739    1.9816   -7.6368 H         1 UNK         0.3000 
    116 H116       30.0909    2.8508   -7.0843 H         1 UNK         0.0850 
    117 H117       30.6763    5.1857   -7.6604 H         1 UNK         0.0810 
    118 H118       28.9774    5.0553   -7.2334 H         1 UNK         0.0810 
    119 H119       29.4561    5.2131   -8.9242 H         1 UNK         0.0810 
    120 H120       29.6869    2.5962  -10.5631 H         1 UNK         0.3040 
    121 H121       32.4918    2.5553  -11.2692 H         1 UNK         0.0766 
    122 H122       30.7333    3.0607  -12.9389 H         1 UNK         0.0812 
    123 H123       30.0134    1.4674  -12.7168 H         1 UNK         0.0812 
    124 H124       31.6166    1.6211  -13.4229 H         1 UNK         0.0812 
    125 H125       33.7362    1.1218  -10.2298 H         1 UNK         0.3205 
    126 H126       34.7994   -0.6846   -9.6139 H         1 UNK         0.0754 
    127 H127       34.4587   -2.8654  -10.7388 H         1 UNK         0.0769 
    128 H128       34.4551   -1.5583  -11.9111 H         1 UNK         0.0769 
    129 H129       32.9388   -2.3134  -11.4235 H         1 UNK         0.0769 
    130 H130       31.3175   -1.0007   -9.2890 H         1 UNK         0.2981 
    131 H131       29.9758   -1.6020   -7.6656 H         1 UNK         0.0541 
    132 H132       31.4626   -3.7790   -9.3340 H         1 UNK         0.3459 
    133 H133       31.0063   -5.2370   -8.4896 H         1 UNK         0.3459 
    134 H134       30.6173   -1.7437   -5.2927 H         1 UNK         0.0612 
    135 H135       32.3104   -1.8117   -5.7203 H         1 UNK         0.0612 
    136 H136       33.4117    0.1206   -4.6841 H         1 UNK         0.0624 
    137 H137       32.7514    1.7271   -4.5032 H         1 UNK         0.0624 
@<TRIPOS>BOND
     1    1    2 1    
     2    1   72 1    
     3    1   73 1    
     4    1   74 1    
     5    2    3 2    
     6    2    4 am   BACKBONE|DICT|INTERRES
     7    4    5 1    
     8    4   75 1    
     9    5    6 1    
    10    5   35 1    
    11    5   76 1    
    12    6    7 1    
    13    6   77 1    
    14    6   78 1    
    15    7    8 1    
    16    8    9 1    
    17    8   79 1    
    18    8   80 1    
    19    9   10 ar   
    20    9   14 ar   
    21   10   11 ar   
    22   10   81 1    
    23   11   12 ar   
    24   11   71 1    
    25   12   13 ar   
    26   12   82 1    
    27   13   14 ar   
    28   13   15 1    
    29   14   83 1    
    30   15   16 1    
    31   15   84 1    
    32   15   85 1    
    33   16   17 1    
    34   17   18 1    
    35   17   86 1    
    36   17   87 1    
    37   18   19 1    
    38   18   37 1    
    39   18   88 1    
    40   19   20 am   BACKBONE|DICT|INTERRES
    41   19   89 1    
    42   20   21 2    
    43   20   22 1    
    44   22   23 1    
    45   22   24 1    
    46   22   90 1    
    47   23   91 1    
    48   23   92 1    
    49   23   93 1    
    50   24   25 am   BACKBONE|DICT|INTERRES
    51   24   94 1    
    52   25   26 2    
    53   25   27 1    
    54   27   28 1    
    55   27   29 1    
    56   27   95 1    
    57   28   96 1    
    58   28   97 1    
    59   28   98 1    
    60   29   30 am   BACKBONE|DICT|INTERRES
    61   29   99 1    
    62   30   31 2    
    63   30   32 1    
    64   32   33 1    
    65   32   34 1    
    66   32  100 1    
    67   33  101 1    
    68   33  102 1    
    69   33  103 1    
    70   34   35 am   BACKBONE|DICT|INTERRES
    71   34  104 1    
    72   35   36 2    
    73   37   38 2    
    74   37   39 am   BACKBONE|DICT|INTERRES
    75   39   40 1    
    76   39  105 1    
    77   40   41 1    
    78   40   42 1    
    79   40  106 1    
    80   41  107 1    
    81   41  108 1    
    82   41  109 1    
    83   42   43 2    
    84   42   44 am   BACKBONE|DICT|INTERRES
    85   44   45 1    
    86   44  110 1    
    87   45   46 1    
    88   45   47 1    
    89   45  111 1    
    90   46  112 1    
    91   46  113 1    
    92   46  114 1    
    93   47   48 2    
    94   47   49 am   BACKBONE|DICT|INTERRES
    95   49   50 1    
    96   49  115 1    
    97   50   51 1    
    98   50   52 1    
    99   50  116 1    
   100   51  117 1    
   101   51  118 1    
   102   51  119 1    
   103   52   53 2    
   104   52   54 am   BACKBONE|DICT|INTERRES
   105   54   55 1    
   106   54  120 1    
   107   55   56 1    
   108   55   57 1    
   109   55  121 1    
   110   56  122 1    
   111   56  123 1    
   112   56  124 1    
   113   57   58 2    
   114   57   59 am   BACKBONE|DICT|INTERRES
   115   59   60 1    
   116   59  125 1    
   117   60   61 1    
   118   60   62 1    
   119   60  126 1    
   120   61  127 1    
   121   61  128 1    
   122   61  129 1    
   123   62   63 2    
   124   62   64 am   BACKBONE|DICT|INTERRES
   125   64   65 1    
   126   64  130 1    
   127   65   66 1    
   128   65   69 1    
   129   65  131 1    
   130   66   67 am   BACKBONE|DICT|INTERRES
   131   66   68 2    
   132   67  132 1    
   133   67  133 1    
   134   69   70 1    
   135   69  134 1    
   136   69  135 1    
   137   70   71 1    
   138   71  136 1    
   139   71  137 1    
@<TRIPOS>SUBSTRUCTURE
     1 UNK         1 GROUP             0       ****    0 ROOT    
