@<TRIPOS>MOLECULE
3R137
137   139    1
SMALL
USER_CHARGES


@<TRIPOS>ATOM
      1 CA         29.5633    1.7101    2.2221 C.3       0 UNK        -0.2020 
      2 C          29.0344    1.2705    0.8649 C.2       0 UNK         0.4855 
      3 O          28.0668    1.8483    0.3680 O.2       0 UNK        -0.5197 
      4 N          29.6673    0.2599    0.2576 N.am      1 UNK        -0.4892 
      5 CA         29.2575   -0.3483   -1.0119 C.3       1 UNK         0.0835 
      6 C6         30.4259   -1.0959   -1.7046 C.3       12 UNK        -0.0855 
      7 S7         31.3841   -2.2165   -0.6228 S.3       12 UNK        -0.2931 
      8 C8         30.5925   -3.8290   -0.9239 C.3       12 UNK         0.0378 
      9 C9         30.7834   -4.3185   -2.3527 C.ar      12 UNK        -0.0802 
     10 C10        32.0382   -4.7578   -2.7843 C.ar      12 UNK        -0.0944 
     11 C11        32.2127   -5.2353   -4.0860 C.ar      12 UNK        -0.0787 
     12 C12        31.1139   -5.2934   -4.9498 C.ar      12 UNK        -0.0862 
     13 C13        29.8556   -4.8443   -4.5365 C.ar      12 UNK        -0.0733 
     14 C14        29.6995   -4.3565   -3.2356 C.ar      12 UNK        -0.0832 
     15 C15        28.6591   -4.9256   -5.4791 C.3       12 UNK         0.0240 
     16 S16        28.9219   -4.0261   -7.0415 S.3       12 UNK        -0.2522 
     17 C17        28.8755   -2.2842   -6.5052 C.3       12 UNK        -0.0967 
     18 CA         27.8634   -1.4586   -7.3304 C.3       5 UNK         0.0660 
     19 N          26.4755   -1.8831   -7.1308 N.am      5 UNK        -0.4015 
     20 C          25.4767   -1.5896   -7.9738 C.2       4 UNK         0.4946 
     21 O          25.6185   -0.9227   -8.9999 O.2       4 UNK        -0.5353 
     22 CA         24.0796   -2.1057   -7.5918 C.3       4 UNK         0.0277 
     23 CB         23.9668   -3.6179   -7.8466 C.3       4 UNK        -0.1981 
     24 N          23.7198   -1.8079   -6.2025 N.am      4 UNK        -0.4209 
     25 C          23.5452   -0.5694   -5.7211 C.2       3 UNK         0.4942 
     26 O          23.6764    0.4531   -6.3928 O.2       3 UNK        -0.5208 
     27 CA         23.1964   -0.4398   -4.2283 C.3       3 UNK         0.0250 
     28 CB         21.7023   -0.7219   -3.9996 C.3       3 UNK        -0.1990 
     29 N          23.9979   -1.2551   -3.3037 N.am      3 UNK        -0.4232 
     30 C          25.3335   -1.3613   -3.2994 C.2       2 UNK         0.4993 
     31 O          26.0687   -0.9549   -4.2041 O.2       2 UNK        -0.5286 
     32 CA         25.9748   -2.0259   -2.0778 C.3       2 UNK         0.0209 
     33 CB         26.0229   -3.5547   -2.2317 C.3       2 UNK        -0.1931 
     34 N          27.3211   -1.4703   -1.9812 N.am      2 UNK        -0.4546 
     35 C          27.9963   -1.2271   -0.8551 C.2       1 UNK         0.5154 
     36 O          27.6541   -1.6520    0.2521 O.2       1 UNK        -0.5181 
     37 C          28.0387    0.0512   -7.0867 C.2       5 UNK         0.5014 
     38 O          28.8360    0.6767   -7.7852 O.2       5 UNK        -0.5248 
     39 N          27.2770    0.6205   -6.1419 N.am      6 UNK        -0.4434 
     40 CA         27.2141    2.0576   -5.8763 C.3       6 UNK         0.0363 
     41 CB         26.4058    2.3175   -4.5954 C.3       6 UNK        -0.1936 
     42 C          26.6350    2.8434   -7.0638 C.2       6 UNK         0.5081 
     43 O          27.2173    3.8556   -7.4518 O.2       6 UNK        -0.5248 
     44 N          25.5354    2.3457   -7.6506 N.am      7 UNK        -0.4718 
     45 CA         24.9113    2.9079   -8.8537 C.3       7 UNK         0.0273 
     46 CB         23.5602    2.2216   -9.1089 C.3       7 UNK        -0.1935 
     47 C          25.8099    2.8108  -10.0980 C.2       7 UNK         0.5018 
     48 O          25.8400    3.7483  -10.8959 O.2       7 UNK        -0.5186 
     49 N          26.5448    1.6972  -10.2263 N.am      8 UNK        -0.4240 
     50 CA         27.5426    1.4776  -11.2773 C.3       8 UNK         0.0235 
     51 CB         27.8638   -0.0244  -11.3524 C.3       8 UNK        -0.2000 
     52 C          28.8412    2.2863  -11.0847 C.2       8 UNK         0.4941 
     53 O          29.6170    2.3869  -12.0361 O.2       8 UNK        -0.5273 
     54 N          29.0687    2.8134   -9.8702 N.am      9 UNK        -0.4262 
     55 CA         30.2971    3.4579   -9.3863 C.3       9 UNK         0.0264 
     56 CB         30.5459    4.7971  -10.1123 C.3       9 UNK        -0.1955 
     57 C          31.5054    2.4997   -9.4349 C.2       9 UNK         0.5031 
     58 O          32.5872    2.8826   -9.8872 O.2       9 UNK        -0.5390 
     59 N          31.2739    1.2572   -8.9958 N.am      10 UNK        -0.4204 
     60 CA         32.2128    0.1401   -9.0396 C.3       10 UNK         0.0237 
     61 CB         31.4788   -1.0784   -9.6423 C.3       10 UNK        -0.1985 
     62 C          32.8124   -0.1237   -7.6440 C.2       10 UNK         0.4970 
     63 O          33.0532    0.8206   -6.8888 O.2       10 UNK        -0.4914 
     64 N          33.0805   -1.4022   -7.3529 N.am      11 UNK        -0.4285 
     65 CA         33.6426   -1.9359   -6.1038 C.3       11 UNK         0.1007 
     66 C          32.8146   -1.5703   -4.8337 C.2       11 UNK         0.5703 
     67 N          33.4662   -1.4313   -3.6865 N.am      11 UNK        -0.7361 
     68 O          31.5968   -1.4215   -4.8740 O.2       11 UNK        -0.4986 
     69 C69        33.8635   -3.4639   -6.2817 C.3       12 UNK        -0.0947 
     70 S70        34.7120   -4.3051   -4.8998 S.3       12 UNK        -0.2240 
     71 C71        33.5858   -5.6977   -4.5552 C.3       12 UNK         0.0194 
     72 H72        28.7874    1.6023    2.9795 H         1 UNK         0.0906 
     73 H73        30.4256    1.1210    2.5342 H         1 UNK         0.0906 
     74 H74        29.8629    2.7572    2.1872 H         1 UNK         0.0906 
     75 H75        30.4367   -0.2056    0.7194 H         1 UNK         0.3140 
     76 H76        28.9698    0.4709   -1.6760 H         1 UNK         0.1085 
     77 H77        30.0863   -1.6273   -2.5946 H         1 UNK         0.0836 
     78 H78        31.1285   -0.3516   -2.0816 H         1 UNK         0.0836 
     79 H79        31.0228   -4.5608   -0.2388 H         1 UNK         0.0731 
     80 H80        29.5335   -3.7674   -0.6698 H         1 UNK         0.0731 
     81 H81        32.8821   -4.7183   -2.1090 H         1 UNK         0.1312 
     82 H82        31.2372   -5.6770   -5.9534 H         1 UNK         0.1406 
     83 H83        28.7317   -4.0153   -2.9013 H         1 UNK         0.1631 
     84 H84        28.4707   -5.9747   -5.7105 H         1 UNK         0.0717 
     85 H85        27.7526   -4.5508   -5.0043 H         1 UNK         0.0717 
     86 H86        28.6661   -2.2133   -5.4360 H         1 UNK         0.0934 
     87 H87        29.8813   -1.8885   -6.6474 H         1 UNK         0.0934 
     88 H88        28.1006   -1.6236   -8.3835 H         1 UNK         0.0739 
     89 H89        26.2687   -2.3781   -6.2761 H         1 UNK         0.3093 
     90 H90        23.3579   -1.5996   -8.2370 H         1 UNK         0.0818 
     91 H91        22.9507   -3.9737   -7.6755 H         1 UNK         0.0819 
     92 H92        24.2218   -3.8581   -8.8799 H         1 UNK         0.0819 
     93 H93        24.6362   -4.1919   -7.2046 H         1 UNK         0.0819 
     94 H94        23.6020   -2.5894   -5.5743 H         1 UNK         0.3041 
     95 H95        23.3803    0.6012   -3.9557 H         1 UNK         0.0784 
     96 H96        21.0835   -0.1195   -4.6667 H         1 UNK         0.0793 
     97 H97        21.4550   -1.7684   -4.1819 H         1 UNK         0.0793 
     98 H98        21.4030   -0.4788   -2.9799 H         1 UNK         0.0793 
     99 H99        23.4906   -1.6581   -2.5288 H         1 UNK         0.3024 
    100 H100       25.4062   -1.7577   -1.1840 H         1 UNK         0.1171 
    101 H101       26.6085   -4.0182   -1.4375 H         1 UNK         0.0786 
    102 H102       25.0198   -3.9799   -2.1829 H         1 UNK         0.0786 
    103 H103       26.4501   -3.8515   -3.1884 H         1 UNK         0.0786 
    104 H104       27.6334   -1.0613   -2.8544 H         1 UNK         0.2977 
    105 H105       26.6891    0.0234   -5.5609 H         1 UNK         0.3127 
    106 H106       28.2349    2.4090   -5.7109 H         1 UNK         0.0770 
    107 H107       25.3781    1.9658   -4.6883 H         1 UNK         0.0814 
    108 H108       26.3673    3.3836   -4.3681 H         1 UNK         0.0814 
    109 H109       26.8530    1.8181   -3.7358 H         1 UNK         0.0814 
    110 H110       25.0808    1.5324   -7.2425 H         1 UNK         0.2983 
    111 H111       24.7251    3.9678   -8.6670 H         1 UNK         0.0947 
    112 H112       23.0773    2.6248  -10.0001 H         1 UNK         0.0806 
    113 H113       22.8763    2.3725   -8.2736 H         1 UNK         0.0806 
    114 H114       23.6754    1.1468   -9.2554 H         1 UNK         0.0806 
    115 H115       26.3991    0.9402   -9.5655 H         1 UNK         0.3000 
    116 H116       27.1070    1.7823  -12.2312 H         1 UNK         0.0850 
    117 H117       26.9655   -0.6156  -11.5313 H         1 UNK         0.0810 
    118 H118       28.3227   -0.3819  -10.4306 H         1 UNK         0.0810 
    119 H119       28.5594   -0.2364  -12.1654 H         1 UNK         0.0810 
    120 H120       28.3671    2.6505   -9.1587 H         1 UNK         0.3040 
    121 H121       30.1266    3.6808   -8.3318 H         1 UNK         0.0766 
    122 H122       29.6766    5.4511  -10.0438 H         1 UNK         0.0812 
    123 H123       30.7746    4.6511  -11.1683 H         1 UNK         0.0812 
    124 H124       31.3882    5.3293   -9.6689 H         1 UNK         0.0812 
    125 H125       30.3635    1.0593   -8.5771 H         1 UNK         0.3205 
    126 H126       33.0478    0.3855   -9.6989 H         1 UNK         0.0754 
    127 H127       30.6891   -1.4443   -8.9849 H         1 UNK         0.0769 
    128 H128       32.1618   -1.9046   -9.8426 H         1 UNK         0.0769 
    129 H129       31.0162   -0.8210  -10.5957 H         1 UNK         0.0769 
    130 H130       32.8288   -2.0960   -8.0397 H         1 UNK         0.2981 
    131 H131       34.6225   -1.4684   -5.9912 H         1 UNK         0.0541 
    132 H132       32.9414   -1.2379   -2.8495 H         1 UNK         0.3459 
    133 H133       34.4603   -1.5862   -3.6346 H         1 UNK         0.3459 
    134 H134       34.4742   -3.6398   -7.1687 H         1 UNK         0.0612 
    135 H135       32.9114   -3.9520   -6.4870 H         1 UNK         0.0612 
    136 H136       34.0348   -6.3300   -3.7880 H         1 UNK         0.0624 
    137 H137       33.5008   -6.3170   -5.4495 H         1 UNK         0.0624 
@<TRIPOS>BOND
     1    1    2 1    
     2    1   72 1    
     3    1   73 1    
     4    1   74 1    
     5    2    3 2    
     6    2    4 am   BACKBONE|DICT|INTERRES
     7    4    5 1    
     8    4   75 1    
     9    5    6 1    
    10    5   35 1    
    11    5   76 1    
    12    6    7 1    
    13    6   77 1    
    14    6   78 1    
    15    7    8 1    
    16    8    9 1    
    17    8   79 1    
    18    8   80 1    
    19    9   10 ar   
    20    9   14 ar   
    21   10   11 ar   
    22   10   81 1    
    23   11   12 ar   
    24   11   71 1    
    25   12   13 ar   
    26   12   82 1    
    27   13   14 ar   
    28   13   15 1    
    29   14   83 1    
    30   15   16 1    
    31   15   84 1    
    32   15   85 1    
    33   16   17 1    
    34   17   18 1    
    35   17   86 1    
    36   17   87 1    
    37   18   19 1    
    38   18   37 1    
    39   18   88 1    
    40   19   20 am   BACKBONE|DICT|INTERRES
    41   19   89 1    
    42   20   21 2    
    43   20   22 1    
    44   22   23 1    
    45   22   24 1    
    46   22   90 1    
    47   23   91 1    
    48   23   92 1    
    49   23   93 1    
    50   24   25 am   BACKBONE|DICT|INTERRES
    51   24   94 1    
    52   25   26 2    
    53   25   27 1    
    54   27   28 1    
    55   27   29 1    
    56   27   95 1    
    57   28   96 1    
    58   28   97 1    
    59   28   98 1    
    60   29   30 am   BACKBONE|DICT|INTERRES
    61   29   99 1    
    62   30   31 2    
    63   30   32 1    
    64   32   33 1    
    65   32   34 1    
    66   32  100 1    
    67   33  101 1    
    68   33  102 1    
    69   33  103 1    
    70   34   35 am   BACKBONE|DICT|INTERRES
    71   34  104 1    
    72   35   36 2    
    73   37   38 2    
    74   37   39 am   BACKBONE|DICT|INTERRES
    75   39   40 1    
    76   39  105 1    
    77   40   41 1    
    78   40   42 1    
    79   40  106 1    
    80   41  107 1    
    81   41  108 1    
    82   41  109 1    
    83   42   43 2    
    84   42   44 am   BACKBONE|DICT|INTERRES
    85   44   45 1    
    86   44  110 1    
    87   45   46 1    
    88   45   47 1    
    89   45  111 1    
    90   46  112 1    
    91   46  113 1    
    92   46  114 1    
    93   47   48 2    
    94   47   49 am   BACKBONE|DICT|INTERRES
    95   49   50 1    
    96   49  115 1    
    97   50   51 1    
    98   50   52 1    
    99   50  116 1    
   100   51  117 1    
   101   51  118 1    
   102   51  119 1    
   103   52   53 2    
   104   52   54 am   BACKBONE|DICT|INTERRES
   105   54   55 1    
   106   54  120 1    
   107   55   56 1    
   108   55   57 1    
   109   55  121 1    
   110   56  122 1    
   111   56  123 1    
   112   56  124 1    
   113   57   58 2    
   114   57   59 am   BACKBONE|DICT|INTERRES
   115   59   60 1    
   116   59  125 1    
   117   60   61 1    
   118   60   62 1    
   119   60  126 1    
   120   61  127 1    
   121   61  128 1    
   122   61  129 1    
   123   62   63 2    
   124   62   64 am   BACKBONE|DICT|INTERRES
   125   64   65 1    
   126   64  130 1    
   127   65   66 1    
   128   65   69 1    
   129   65  131 1    
   130   66   67 am   BACKBONE|DICT|INTERRES
   131   66   68 2    
   132   67  132 1    
   133   67  133 1    
   134   69   70 1    
   135   69  134 1    
   136   69  135 1    
   137   70   71 1    
   138   71  136 1    
   139   71  137 1    
@<TRIPOS>SUBSTRUCTURE
     1 UNK         1 GROUP             0       ****    0 ROOT    
