@<TRIPOS>MOLECULE
3R137
137   139    1
SMALL
USER_CHARGES


@<TRIPOS>ATOM
      1 CA         27.9401   -9.0061   -1.3465 C.3       0 UNK        -0.2020 
      2 C          27.2784   -7.9598   -0.4625 C.2       0 UNK         0.4855 
      3 O          26.1993   -8.2059    0.0765 O.2       0 UNK        -0.5197 
      4 N          27.9141   -6.7910   -0.3113 N.am      1 UNK        -0.4892 
      5 CA         27.4211   -5.6611    0.4883 C.3       1 UNK         0.0835 
      6 C6         28.5823   -4.7407    0.9517 C.3       12 UNK        -0.0855 
      7 S7         29.6143   -4.0798   -0.4068 S.3       12 UNK        -0.2931 
      8 C8         29.0010   -2.3604   -0.5077 C.3       12 UNK         0.0378 
      9 C9         29.6044   -1.5095   -1.6285 C.ar      12 UNK        -0.0802 
     10 C10        30.2187   -2.0674   -2.7589 C.ar      12 UNK        -0.0944 
     11 C11        30.7437   -1.2510   -3.7652 C.ar      12 UNK        -0.0787 
     12 C12        30.6389    0.1356   -3.6471 C.ar      12 UNK        -0.0862 
     13 C13        30.0134    0.7108   -2.5387 C.ar      12 UNK        -0.0733 
     14 C14        29.5036   -0.1171   -1.5340 C.ar      12 UNK        -0.0832 
     15 C15        29.9064    2.2238   -2.4103 C.3       12 UNK         0.0240 
     16 S16        28.5586    2.9041   -3.4296 S.3       12 UNK        -0.2522 
     17 C17        29.3977    3.1791   -5.0336 C.3       12 UNK        -0.0967 
     18 CA         28.6439    2.5949   -6.2552 C.3       5 UNK         0.0660 
     19 N          28.2601    1.1921   -6.0712 N.am      5 UNK        -0.4015 
     20 C          27.6758    0.4158   -6.9957 C.2       4 UNK         0.4946 
     21 O          27.5080    0.7635   -8.1657 O.2       4 UNK        -0.5353 
     22 CA         27.0983   -0.9336   -6.5271 C.3       4 UNK         0.0277 
     23 CB         27.9990   -2.1025   -6.9495 C.3       4 UNK        -0.1981 
     24 N          26.8426   -1.0224   -5.0850 N.am      4 UNK        -0.4209 
     25 C          26.0259   -0.2326   -4.3765 C.2       3 UNK         0.4942 
     26 O          25.4032    0.7111   -4.8659 O.2       3 UNK        -0.5208 
     27 CA         25.9077   -0.5448   -2.8729 C.3       3 UNK         0.0250 
     28 CB         25.1110    0.5294   -2.1098 C.3       3 UNK        -0.1990 
     29 N          25.3176   -1.8609   -2.6062 N.am      3 UNK        -0.4232 
     30 C          25.9367   -3.0353   -2.7836 C.2       2 UNK         0.4993 
     31 O          27.0648   -3.1505   -3.2682 O.2       2 UNK        -0.5286 
     32 CA         25.1834   -4.2994   -2.3496 C.3       2 UNK         0.0209 
     33 CB         24.7538   -5.1259   -3.5728 C.3       2 UNK        -0.1931 
     34 N          26.0613   -5.1058   -1.5027 N.am      2 UNK        -0.4546 
     35 C          26.2970   -4.8582   -0.2065 C.2       1 UNK         0.5154 
     36 O          25.6740   -4.0151    0.4416 O.2       1 UNK        -0.5181 
     37 C          27.4695    3.5100   -6.6687 C.2       5 UNK         0.5014 
     38 O          27.7113    4.4874   -7.3772 O.2       5 UNK        -0.5248 
     39 N          26.2261    3.1703   -6.2885 N.am      6 UNK        -0.4434 
     40 CA         25.0136    3.8788   -6.7156 C.3       6 UNK         0.0363 
     41 CB         23.8118    3.3803   -5.8982 C.3       6 UNK        -0.1936 
     42 C          24.7301    3.7467   -8.2248 C.2       6 UNK         0.5081 
     43 O          24.1017    4.6363   -8.7986 O.2       6 UNK        -0.5248 
     44 N          25.2146    2.6604   -8.8417 N.am      7 UNK        -0.4718 
     45 CA         25.1764    2.4203  -10.2862 C.3       7 UNK         0.0273 
     46 CB         24.8024    0.9457  -10.5203 C.3       7 UNK        -0.1935 
     47 C          26.5227    2.7471  -10.9622 C.2       7 UNK         0.5018 
     48 O          26.6326    2.5771  -12.1771 O.2       7 UNK        -0.5186 
     49 N          27.5218    3.1747  -10.1713 N.am      8 UNK        -0.4240 
     50 CA         28.9333    3.3711  -10.5258 C.3       8 UNK         0.0235 
     51 CB         29.0957    4.5734  -11.4800 C.3       8 UNK        -0.2000 
     52 C          29.5996    2.0829  -11.0545 C.2       8 UNK         0.4941 
     53 O          30.4180    2.1482  -11.9745 O.2       8 UNK        -0.5273 
     54 N          29.2214    0.9350  -10.4784 N.am      9 UNK        -0.4262 
     55 CA         29.6421   -0.3989  -10.8970 C.3       9 UNK         0.0264 
     56 CB         28.3782   -1.2475  -11.1206 C.3       9 UNK        -0.1955 
     57 C          30.5415   -1.0464   -9.8362 C.2       9 UNK         0.5031 
     58 O          30.5295   -0.6345   -8.6728 O.2       9 UNK        -0.5390 
     59 N          31.2833   -2.0771  -10.2662 N.am      10 UNK        -0.4204 
     60 CA         32.1574   -2.9764   -9.4983 C.3       10 UNK         0.0237 
     61 CB         31.3517   -3.7896   -8.4644 C.3       10 UNK        -0.1985 
     62 C          33.3783   -2.3023   -8.8472 C.2       10 UNK         0.4970 
     63 O          34.5078   -2.7080   -9.1236 O.2       10 UNK        -0.4914 
     64 N          33.1293   -1.3079   -7.9928 N.am      11 UNK        -0.4285 
     65 CA         34.1373   -0.5785   -7.2085 C.3       11 UNK         0.1007 
     66 C          34.6468    0.7181   -7.9006 C.2       11 UNK         0.5703 
     67 N          34.1224    1.1088   -9.0566 N.am      11 UNK        -0.7361 
     68 O          35.5491    1.3754   -7.3869 O.2       11 UNK        -0.4986 
     69 C69        33.6320   -0.2955   -5.7686 C.3       12 UNK        -0.0947 
     70 S70        33.2274   -1.8283   -4.8586 S.3       12 UNK        -0.2240 
     71 C71        31.4123   -1.8686   -4.9846 C.3       12 UNK         0.0194 
     72 H72        28.1359   -9.9118   -0.7730 H         1 UNK         0.0906 
     73 H73        27.2844   -9.2643   -2.1777 H         1 UNK         0.0906 
     74 H74        28.8863   -8.6543   -1.7574 H         1 UNK         0.0906 
     75 H75        28.7985   -6.6314   -0.7755 H         1 UNK         0.3140 
     76 H76        26.9650   -6.0729    1.3917 H         1 UNK         0.1085 
     77 H77        29.2408   -5.3073    1.6119 H         1 UNK         0.0836 
     78 H78        28.2050   -3.9202    1.5655 H         1 UNK         0.0836 
     79 H79        29.1934   -1.8782    0.4520 H         1 UNK         0.0731 
     80 H80        27.9188   -2.3743   -0.6354 H         1 UNK         0.0731 
     81 H81        30.2871   -3.1402   -2.8679 H         1 UNK         0.1312 
     82 H82        31.0499    0.7639   -4.4205 H         1 UNK         0.1406 
     83 H83        29.0202    0.3258   -0.6733 H         1 UNK         0.1631 
     84 H84        30.8552    2.6938   -2.6734 H         1 UNK         0.0717 
     85 H85        29.7189    2.4976   -1.3709 H         1 UNK         0.0717 
     86 H86        29.5569    4.2530   -5.1542 H         1 UNK         0.0934 
     87 H87        30.4027    2.7623   -5.0031 H         1 UNK         0.0934 
     88 H88        29.3391    2.6059   -7.0977 H         1 UNK         0.0739 
     89 H89        28.3337    0.8370   -5.1290 H         1 UNK         0.3093 
     90 H90        26.1365   -1.0504   -7.0303 H         1 UNK         0.0818 
     91 H91        28.1995   -2.0799   -8.0202 H         1 UNK         0.0819 
     92 H92        28.9591   -2.0713   -6.4386 H         1 UNK         0.0819 
     93 H93        27.5337   -3.0631   -6.7281 H         1 UNK         0.0819 
     94 H94        27.2610   -1.8062   -4.5871 H         1 UNK         0.3041 
     95 H95        26.9219   -0.5417   -2.4722 H         1 UNK         0.0784 
     96 H96        25.5508    1.5173   -2.2566 H         1 UNK         0.0793 
     97 H97        24.0748    0.5805   -2.4464 H         1 UNK         0.0793 
     98 H98        25.1087    0.3354   -1.0370 H         1 UNK         0.0793 
     99 H99        24.3786   -1.8575   -2.2342 H         1 UNK         0.3024 
    100 H100       24.2911   -4.0218   -1.7834 H         1 UNK         0.1171 
    101 H101       24.2211   -6.0289   -3.2737 H         1 UNK         0.0786 
    102 H102       24.0845   -4.5520   -4.2151 H         1 UNK         0.0786 
    103 H103       25.6091   -5.4266   -4.1797 H         1 UNK         0.0786 
    104 H104       26.6546   -5.7761   -1.9690 H         1 UNK         0.2977 
    105 H105       26.0851    2.3393   -5.7182 H         1 UNK         0.3127 
    106 H106       25.1548    4.9401   -6.5000 H         1 UNK         0.0770 
    107 H107       23.5998    2.3285   -6.0942 H         1 UNK         0.0814 
    108 H108       22.9117    3.9450   -6.1446 H         1 UNK         0.0814 
    109 H109       23.9837    3.4931   -4.8276 H         1 UNK         0.0814 
    110 H110       25.7450    1.9870   -8.3001 H         1 UNK         0.2983 
    111 H111       24.4157    3.0476  -10.7559 H         1 UNK         0.0947 
    112 H112       25.5515    0.2693  -10.1062 H         1 UNK         0.0806 
    113 H113       24.7187    0.7256  -11.5854 H         1 UNK         0.0806 
    114 H114       23.8424    0.7029  -10.0648 H         1 UNK         0.0806 
    115 H115       27.3044    3.3170   -9.1934 H         1 UNK         0.3000 
    116 H116       29.4490    3.6166   -9.5963 H         1 UNK         0.0850 
    117 H117       28.6296    5.4695  -11.0703 H         1 UNK         0.0810 
    118 H118       28.6501    4.3788  -12.4560 H         1 UNK         0.0810 
    119 H119       30.1491    4.8034  -11.6437 H         1 UNK         0.0810 
    120 H120       28.6022    0.9611   -9.6695 H         1 UNK         0.3040 
    121 H121       30.1989   -0.3485  -11.8350 H         1 UNK         0.0766 
    122 H122       28.6272   -2.2662  -11.4201 H         1 UNK         0.0812 
    123 H123       27.7558   -0.8221  -11.9083 H         1 UNK         0.0812 
    124 H124       27.7688   -1.3096  -10.2186 H         1 UNK         0.0812 
    125 H125       31.2305   -2.2966  -11.2518 H         1 UNK         0.3205 
    126 H126       32.5529   -3.6882  -10.2249 H         1 UNK         0.0754 
    127 H127       31.9952   -4.4909   -7.9313 H         1 UNK         0.0769 
    128 H128       30.5663   -4.3721   -8.9459 H         1 UNK         0.0769 
    129 H129       30.8803   -3.1520   -7.7172 H         1 UNK         0.0769 
    130 H130       32.1649   -0.9936   -7.9115 H         1 UNK         0.2981 
    131 H131       35.0204   -1.2129   -7.1130 H         1 UNK         0.0541 
    132 H132       34.4680    1.9464   -9.4976 H         1 UNK         0.3459 
    133 H133       33.3860    0.5749   -9.4878 H         1 UNK         0.3459 
    134 H134       34.3966    0.2267   -5.1908 H         1 UNK         0.0612 
    135 H135       32.7681    0.3683   -5.7961 H         1 UNK         0.0612 
    136 H136       31.0967   -2.9064   -5.1010 H         1 UNK         0.0624 
    137 H137       31.0914   -1.3505   -5.8888 H         1 UNK         0.0624 
@<TRIPOS>BOND
     1    1    2 1    
     2    1   72 1    
     3    1   73 1    
     4    1   74 1    
     5    2    3 2    
     6    2    4 am   BACKBONE|DICT|INTERRES
     7    4    5 1    
     8    4   75 1    
     9    5    6 1    
    10    5   35 1    
    11    5   76 1    
    12    6    7 1    
    13    6   77 1    
    14    6   78 1    
    15    7    8 1    
    16    8    9 1    
    17    8   79 1    
    18    8   80 1    
    19    9   10 ar   
    20    9   14 ar   
    21   10   11 ar   
    22   10   81 1    
    23   11   12 ar   
    24   11   71 1    
    25   12   13 ar   
    26   12   82 1    
    27   13   14 ar   
    28   13   15 1    
    29   14   83 1    
    30   15   16 1    
    31   15   84 1    
    32   15   85 1    
    33   16   17 1    
    34   17   18 1    
    35   17   86 1    
    36   17   87 1    
    37   18   19 1    
    38   18   37 1    
    39   18   88 1    
    40   19   20 am   BACKBONE|DICT|INTERRES
    41   19   89 1    
    42   20   21 2    
    43   20   22 1    
    44   22   23 1    
    45   22   24 1    
    46   22   90 1    
    47   23   91 1    
    48   23   92 1    
    49   23   93 1    
    50   24   25 am   BACKBONE|DICT|INTERRES
    51   24   94 1    
    52   25   26 2    
    53   25   27 1    
    54   27   28 1    
    55   27   29 1    
    56   27   95 1    
    57   28   96 1    
    58   28   97 1    
    59   28   98 1    
    60   29   30 am   BACKBONE|DICT|INTERRES
    61   29   99 1    
    62   30   31 2    
    63   30   32 1    
    64   32   33 1    
    65   32   34 1    
    66   32  100 1    
    67   33  101 1    
    68   33  102 1    
    69   33  103 1    
    70   34   35 am   BACKBONE|DICT|INTERRES
    71   34  104 1    
    72   35   36 2    
    73   37   38 2    
    74   37   39 am   BACKBONE|DICT|INTERRES
    75   39   40 1    
    76   39  105 1    
    77   40   41 1    
    78   40   42 1    
    79   40  106 1    
    80   41  107 1    
    81   41  108 1    
    82   41  109 1    
    83   42   43 2    
    84   42   44 am   BACKBONE|DICT|INTERRES
    85   44   45 1    
    86   44  110 1    
    87   45   46 1    
    88   45   47 1    
    89   45  111 1    
    90   46  112 1    
    91   46  113 1    
    92   46  114 1    
    93   47   48 2    
    94   47   49 am   BACKBONE|DICT|INTERRES
    95   49   50 1    
    96   49  115 1    
    97   50   51 1    
    98   50   52 1    
    99   50  116 1    
   100   51  117 1    
   101   51  118 1    
   102   51  119 1    
   103   52   53 2    
   104   52   54 am   BACKBONE|DICT|INTERRES
   105   54   55 1    
   106   54  120 1    
   107   55   56 1    
   108   55   57 1    
   109   55  121 1    
   110   56  122 1    
   111   56  123 1    
   112   56  124 1    
   113   57   58 2    
   114   57   59 am   BACKBONE|DICT|INTERRES
   115   59   60 1    
   116   59  125 1    
   117   60   61 1    
   118   60   62 1    
   119   60  126 1    
   120   61  127 1    
   121   61  128 1    
   122   61  129 1    
   123   62   63 2    
   124   62   64 am   BACKBONE|DICT|INTERRES
   125   64   65 1    
   126   64  130 1    
   127   65   66 1    
   128   65   69 1    
   129   65  131 1    
   130   66   67 am   BACKBONE|DICT|INTERRES
   131   66   68 2    
   132   67  132 1    
   133   67  133 1    
   134   69   70 1    
   135   69  134 1    
   136   69  135 1    
   137   70   71 1    
   138   71  136 1    
   139   71  137 1    
@<TRIPOS>SUBSTRUCTURE
     1 UNK         1 GROUP             0       ****    0 ROOT    
