@<TRIPOS>MOLECULE
3R137
137   139    1
SMALL
USER_CHARGES


@<TRIPOS>ATOM
      1 CA         30.5933    1.3702   -3.2051 C.3       0 UNK        -0.2020 
      2 C          29.6976    0.1427   -3.1353 C.2       0 UNK         0.4855 
      3 O          29.0032   -0.1560   -4.1043 O.2       0 UNK        -0.5197 
      4 N          29.7193   -0.5719   -2.0036 N.am      1 UNK        -0.4892 
      5 CA         28.9058   -1.7673   -1.7543 C.3       1 UNK         0.0835 
      6 C6         29.4689   -2.6278   -0.5920 C.3       12 UNK        -0.0855 
      7 S7         31.2441   -3.0297   -0.7521 S.3       12 UNK        -0.2931 
      8 C8         31.2095   -4.7043   -1.4676 C.3       12 UNK         0.0378 
      9 C9         30.9072   -4.6731   -2.9583 C.ar      12 UNK        -0.0802 
     10 C10        31.8838   -4.2329   -3.8583 C.ar      12 UNK        -0.0944 
     11 C11        31.6201   -4.1990   -5.2301 C.ar      12 UNK        -0.0787 
     12 C12        30.3706   -4.6096   -5.7003 C.ar      12 UNK        -0.0862 
     13 C13        29.3841   -5.0457   -4.8115 C.ar      12 UNK        -0.0733 
     14 C14        29.6613   -5.0871   -3.4409 C.ar      12 UNK        -0.0832 
     15 C15        28.0164   -5.4577   -5.3392 C.3       12 UNK         0.0240 
     16 S16        26.6899   -4.3543   -4.7567 S.3       12 UNK        -0.2522 
     17 C17        27.2211   -2.7218   -5.3820 C.3       12 UNK        -0.0967 
     18 CA         26.3205   -2.1492   -6.5030 C.3       5 UNK         0.0660 
     19 N          24.8972   -2.1763   -6.1554 N.am      5 UNK        -0.4015 
     20 C          23.8847   -2.0648   -7.0253 C.2       4 UNK         0.4946 
     21 O          24.0365   -1.9595   -8.2426 O.2       4 UNK        -0.5353 
     22 CA         22.4595   -2.0679   -6.4414 C.3       4 UNK         0.0277 
     23 CB         21.9144   -3.5035   -6.3693 C.3       4 UNK        -0.1981 
     24 N          22.3860   -1.4536   -5.1125 N.am      4 UNK        -0.4209 
     25 C          22.4769   -0.1355   -4.8827 C.2       3 UNK         0.4942 
     26 O          22.5407    0.7114   -5.7738 O.2       3 UNK        -0.5208 
     27 CA         22.5446    0.3142   -3.4089 C.3       3 UNK         0.0250 
     28 CB         21.1330    0.5863   -2.8649 C.3       3 UNK        -0.1990 
     29 N          23.2425   -0.6223   -2.5144 N.am      3 UNK        -0.4232 
     30 C          24.5055   -1.0394   -2.6815 C.2       2 UNK         0.4993 
     31 O          25.1996   -0.7065   -3.6425 O.2       2 UNK        -0.5286 
     32 CA         25.0551   -2.0391   -1.6481 C.3       2 UNK         0.0209 
     33 CB         24.3398   -3.3962   -1.7732 C.3       2 UNK        -0.1931 
     34 N          26.4974   -2.2561   -1.8101 N.am      2 UNK        -0.4546 
     35 C          27.4422   -1.3753   -1.4540 C.2       1 UNK         0.5154 
     36 O          27.1990   -0.3208   -0.8590 O.2       1 UNK        -0.5181 
     37 C          26.7656   -0.7148   -6.8444 C.2       5 UNK         0.5014 
     38 O          27.5127   -0.5208   -7.8031 O.2       5 UNK        -0.5248 
     39 N          26.2610    0.2621   -6.0740 N.am      6 UNK        -0.4434 
     40 CA         26.5519    1.6970   -6.1579 C.3       6 UNK         0.0363 
     41 CB         25.8325    2.4187   -5.0077 C.3       6 UNK        -0.1936 
     42 C          26.2271    2.3653   -7.5083 C.2       6 UNK         0.5081 
     43 O          26.6862    3.4821   -7.7472 O.2       6 UNK        -0.5248 
     44 N          25.4956    1.6716   -8.3920 N.am      7 UNK        -0.4718 
     45 CA         25.3480    2.0174   -9.8092 C.3       7 UNK         0.0273 
     46 CB         24.3326    1.0606  -10.4537 C.3       7 UNK        -0.1935 
     47 C          26.6841    1.9927  -10.5835 C.2       7 UNK         0.5018 
     48 O          26.8065    2.6923  -11.5895 O.2       7 UNK        -0.5186 
     49 N          27.6607    1.2187  -10.0911 N.am      8 UNK        -0.4240 
     50 CA         29.0421    1.1758  -10.5596 C.3       8 UNK         0.0235 
     51 CB         29.2612   -0.1090  -11.3814 C.3       8 UNK        -0.2000 
     52 C          29.9706    1.2803   -9.3377 C.2       8 UNK         0.4941 
     53 O          30.7769    0.3808   -9.0967 O.2       8 UNK        -0.5273 
     54 N          29.8105    2.3685   -8.5684 N.am      9 UNK        -0.4262 
     55 CA         30.5773    2.6805   -7.3565 C.3       9 UNK         0.0264 
     56 CB         29.9960    3.9503   -6.7089 C.3       9 UNK        -0.1955 
     57 C          32.0887    2.8575   -7.6045 C.2       9 UNK         0.5031 
     58 O          32.5109    3.1004   -8.7380 O.2       9 UNK        -0.5390 
     59 N          32.8631    2.7610   -6.5125 N.am      10 UNK        -0.4204 
     60 CA         34.3324    2.8113   -6.4494 C.3       10 UNK         0.0237 
     61 CB         34.8802    4.1668   -6.9482 C.3       10 UNK        -0.1985 
     62 C          35.0137    1.5987   -7.1179 C.2       10 UNK         0.4970 
     63 O          36.1505    1.7076   -7.5805 O.2       10 UNK        -0.4914 
     64 N          34.3136    0.4582   -7.1303 N.am      11 UNK        -0.4285 
     65 CA         34.7841   -0.8393   -7.6350 C.3       11 UNK         0.1007 
     66 C          35.8147   -1.5719   -6.7257 C.2       11 UNK         0.5703 
     67 N          36.0688   -1.1199   -5.5030 N.am      11 UNK        -0.7361 
     68 O          36.4043   -2.5650   -7.1450 O.2       11 UNK        -0.4986 
     69 C69        33.5879   -1.7512   -8.0168 C.3       12 UNK        -0.0947 
     70 S70        32.3720   -1.9808   -6.6709 S.3       12 UNK        -0.2240 
     71 C71        32.6740   -3.7121   -6.2109 C.3       12 UNK         0.0194 
     72 H72        30.0201    2.2341   -3.5412 H         1 UNK         0.0906 
     73 H73        31.0315    1.6101   -2.2365 H         1 UNK         0.0906 
     74 H74        31.4027    1.1969   -3.9129 H         1 UNK         0.0906 
     75 H75        30.3028   -0.2782   -1.2338 H         1 UNK         0.3140 
     76 H76        28.9193   -2.3705   -2.6648 H         1 UNK         0.1085 
     77 H77        29.3459   -2.1043    0.3585 H         1 UNK         0.0836 
     78 H78        28.9004   -3.5547   -0.4943 H         1 UNK         0.0836 
     79 H79        32.1843   -5.1695   -1.3134 H         1 UNK         0.0731 
     80 H80        30.4908   -5.3250   -0.9303 H         1 UNK         0.0731 
     81 H81        32.8462   -3.9075   -3.4870 H         1 UNK         0.1312 
     82 H82        30.1634   -4.5712   -6.7613 H         1 UNK         0.1406 
     83 H83        28.8995   -5.4278   -2.7527 H         1 UNK         0.1631 
     84 H84        27.7985   -6.4756   -5.0134 H         1 UNK         0.0717 
     85 H85        28.0057   -5.4751   -6.4301 H         1 UNK         0.0717 
     86 H86        27.2388   -2.0456   -4.5282 H         1 UNK         0.0934 
     87 H87        28.2537   -2.7671   -5.7301 H         1 UNK         0.0934 
     88 H88        26.4606   -2.7635   -7.3951 H         1 UNK         0.0739 
     89 H89        24.6944   -2.1881   -5.1659 H         1 UNK         0.3093 
     90 H90        21.8235   -1.4954   -7.1205 H         1 UNK         0.0818 
     91 H91        20.8801   -3.5189   -6.0252 H         1 UNK         0.0819 
     92 H92        21.9337   -3.9766   -7.3523 H         1 UNK         0.0819 
     93 H93        22.5031   -4.1284   -5.6963 H         1 UNK         0.0819 
     94 H94        22.3105   -2.0749   -4.3205 H         1 UNK         0.3041 
     95 H95        23.1026    1.2527   -3.3875 H         1 UNK         0.0784 
     96 H96        20.6007    1.2971   -3.4989 H         1 UNK         0.0793 
     97 H97        20.5334   -0.3238   -2.8213 H         1 UNK         0.0793 
     98 H98        21.1686    1.0146   -1.8629 H         1 UNK         0.0793 
     99 H99        22.7246   -0.9460   -1.7096 H         1 UNK         0.3024 
    100 H100       24.8740   -1.6303   -0.6512 H         1 UNK         0.1171 
    101 H101       23.2720   -3.3039   -1.5712 H         1 UNK         0.0786 
    102 H102       24.7356   -4.1194   -1.0599 H         1 UNK         0.0786 
    103 H103       24.4459   -3.8212   -2.7719 H         1 UNK         0.0786 
    104 H104       26.7663   -3.0868   -2.3175 H         1 UNK         0.2977 
    105 H105       25.7199   -0.0284   -5.2607 H         1 UNK         0.3127 
    106 H106       27.6276    1.8024   -6.0054 H         1 UNK         0.0770 
    107 H107       24.7493    2.3308   -5.0963 H         1 UNK         0.0814 
    108 H108       26.0756    3.4820   -4.9982 H         1 UNK         0.0814 
    109 H109       26.1254    2.0109   -4.0396 H         1 UNK         0.0814 
    110 H110       25.1490    0.7661   -8.1073 H         1 UNK         0.2983 
    111 H111       24.9545    3.0344   -9.8677 H         1 UNK         0.0947 
    112 H112       24.1801    1.3034  -11.5063 H         1 UNK         0.0806 
    113 H113       23.3611    1.1229   -9.9630 H         1 UNK         0.0806 
    114 H114       24.6675    0.0234  -10.4022 H         1 UNK         0.0806 
    115 H115       27.4790    0.6726   -9.2493 H         1 UNK         0.3000 
    116 H116       29.2571    2.0361  -11.1972 H         1 UNK         0.0850 
    117 H117       30.2879   -0.1704  -11.7443 H         1 UNK         0.0810 
    118 H118       28.6059   -0.1383  -12.2518 H         1 UNK         0.0810 
    119 H119       29.0688   -1.0026  -10.7860 H         1 UNK         0.0810 
    120 H120       29.1114    3.0455   -8.8401 H         1 UNK         0.3040 
    121 H121       30.4441    1.8428   -6.6679 H         1 UNK         0.0766 
    122 H122       30.5367    4.2207   -5.8011 H         1 UNK         0.0812 
    123 H123       28.9541    3.8146   -6.4235 H         1 UNK         0.0812 
    124 H124       30.0494    4.8054   -7.3840 H         1 UNK         0.0812 
    125 H125       32.4051    2.6009   -5.6264 H         1 UNK         0.3205 
    126 H126       34.5846    2.7374   -5.3904 H         1 UNK         0.0754 
    127 H127       35.9454    4.2603   -6.7333 H         1 UNK         0.0769 
    128 H128       34.3785    5.0020   -6.4595 H         1 UNK         0.0769 
    129 H129       34.7579    4.2847   -8.0251 H         1 UNK         0.0769 
    130 H130       33.3842    0.4498   -6.7381 H         1 UNK         0.2981 
    131 H131       35.3250   -0.6358   -8.5610 H         1 UNK         0.0541 
    132 H132       35.5896   -0.3101   -5.1461 H         1 UNK         0.3459 
    133 H133       36.7433   -1.6018   -4.9301 H         1 UNK         0.3459 
    134 H134       33.9337   -2.7194   -8.3832 H         1 UNK         0.0612 
    135 H135       33.0533   -1.3023   -8.8553 H         1 UNK         0.0612 
    136 H136       33.6734   -3.8044   -5.7829 H         1 UNK         0.0624 
    137 H137       32.6568   -4.3373   -7.1049 H         1 UNK         0.0624 
@<TRIPOS>BOND
     1    1    2 1    
     2    1   72 1    
     3    1   73 1    
     4    1   74 1    
     5    2    3 2    
     6    2    4 am   BACKBONE|DICT|INTERRES
     7    4    5 1    
     8    4   75 1    
     9    5    6 1    
    10    5   35 1    
    11    5   76 1    
    12    6    7 1    
    13    6   77 1    
    14    6   78 1    
    15    7    8 1    
    16    8    9 1    
    17    8   79 1    
    18    8   80 1    
    19    9   10 ar   
    20    9   14 ar   
    21   10   11 ar   
    22   10   81 1    
    23   11   12 ar   
    24   11   71 1    
    25   12   13 ar   
    26   12   82 1    
    27   13   14 ar   
    28   13   15 1    
    29   14   83 1    
    30   15   16 1    
    31   15   84 1    
    32   15   85 1    
    33   16   17 1    
    34   17   18 1    
    35   17   86 1    
    36   17   87 1    
    37   18   19 1    
    38   18   37 1    
    39   18   88 1    
    40   19   20 am   BACKBONE|DICT|INTERRES
    41   19   89 1    
    42   20   21 2    
    43   20   22 1    
    44   22   23 1    
    45   22   24 1    
    46   22   90 1    
    47   23   91 1    
    48   23   92 1    
    49   23   93 1    
    50   24   25 am   BACKBONE|DICT|INTERRES
    51   24   94 1    
    52   25   26 2    
    53   25   27 1    
    54   27   28 1    
    55   27   29 1    
    56   27   95 1    
    57   28   96 1    
    58   28   97 1    
    59   28   98 1    
    60   29   30 am   BACKBONE|DICT|INTERRES
    61   29   99 1    
    62   30   31 2    
    63   30   32 1    
    64   32   33 1    
    65   32   34 1    
    66   32  100 1    
    67   33  101 1    
    68   33  102 1    
    69   33  103 1    
    70   34   35 am   BACKBONE|DICT|INTERRES
    71   34  104 1    
    72   35   36 2    
    73   37   38 2    
    74   37   39 am   BACKBONE|DICT|INTERRES
    75   39   40 1    
    76   39  105 1    
    77   40   41 1    
    78   40   42 1    
    79   40  106 1    
    80   41  107 1    
    81   41  108 1    
    82   41  109 1    
    83   42   43 2    
    84   42   44 am   BACKBONE|DICT|INTERRES
    85   44   45 1    
    86   44  110 1    
    87   45   46 1    
    88   45   47 1    
    89   45  111 1    
    90   46  112 1    
    91   46  113 1    
    92   46  114 1    
    93   47   48 2    
    94   47   49 am   BACKBONE|DICT|INTERRES
    95   49   50 1    
    96   49  115 1    
    97   50   51 1    
    98   50   52 1    
    99   50  116 1    
   100   51  117 1    
   101   51  118 1    
   102   51  119 1    
   103   52   53 2    
   104   52   54 am   BACKBONE|DICT|INTERRES
   105   54   55 1    
   106   54  120 1    
   107   55   56 1    
   108   55   57 1    
   109   55  121 1    
   110   56  122 1    
   111   56  123 1    
   112   56  124 1    
   113   57   58 2    
   114   57   59 am   BACKBONE|DICT|INTERRES
   115   59   60 1    
   116   59  125 1    
   117   60   61 1    
   118   60   62 1    
   119   60  126 1    
   120   61  127 1    
   121   61  128 1    
   122   61  129 1    
   123   62   63 2    
   124   62   64 am   BACKBONE|DICT|INTERRES
   125   64   65 1    
   126   64  130 1    
   127   65   66 1    
   128   65   69 1    
   129   65  131 1    
   130   66   67 am   BACKBONE|DICT|INTERRES
   131   66   68 2    
   132   67  132 1    
   133   67  133 1    
   134   69   70 1    
   135   69  134 1    
   136   69  135 1    
   137   70   71 1    
   138   71  136 1    
   139   71  137 1    
@<TRIPOS>SUBSTRUCTURE
     1 UNK         1 GROUP             0       ****    0 ROOT    
