@<TRIPOS>MOLECULE
3R137
137   139    1
SMALL
USER_CHARGES


@<TRIPOS>ATOM
      1 CA         26.3324   -7.7097   -4.4792 C.3       0 UNK        -0.2020 
      2 C          26.0828   -6.7876   -3.2951 C.2       0 UNK         0.4855 
      3 O          25.2701   -7.1107   -2.4276 O.2       0 UNK        -0.5197 
      4 N          26.7844   -5.6487   -3.2480 N.am      1 UNK        -0.4892 
      5 CA         26.6393   -4.6151   -2.2155 C.3       1 UNK         0.0835 
      6 C6         27.8317   -3.6234   -2.2012 C.3       12 UNK        -0.0855 
      7 S7         29.4683   -4.4327   -2.1309 S.3       12 UNK        -0.2931 
      8 C8         30.3229   -3.6727   -3.5619 C.3       12 UNK         0.0378 
      9 C9         30.8456   -2.2473   -3.3484 C.ar      12 UNK        -0.0802 
     10 C10        31.8234   -1.7540   -4.2197 C.ar      12 UNK        -0.0944 
     11 C11        32.3365   -0.4615   -4.0668 C.ar      12 UNK        -0.0787 
     12 C12        31.8451    0.3600   -3.0485 C.ar      12 UNK        -0.0862 
     13 C13        30.8677   -0.1144   -2.1712 C.ar      12 UNK        -0.0733 
     14 C14        30.3849   -1.4159   -2.3192 C.ar      12 UNK        -0.0832 
     15 C15        30.3401    0.7669   -1.0481 C.3       12 UNK         0.0240 
     16 S16        29.1141    1.9749   -1.6406 S.3       12 UNK        -0.2522 
     17 C17        27.7930    0.9111   -2.3228 C.3       12 UNK        -0.0967 
     18 CA         27.8167    0.8640   -3.8728 C.3       5 UNK         0.0660 
     19 N          27.0105   -0.2365   -4.4072 N.am      5 UNK        -0.4015 
     20 C          27.1300   -0.7136   -5.6577 C.2       4 UNK         0.4946 
     21 O          28.0175   -0.3669   -6.4387 O.2       4 UNK        -0.5353 
     22 CA         26.0671   -1.7157   -6.1501 C.3       4 UNK         0.0277 
     23 CB         26.5936   -3.1568   -6.0798 C.3       4 UNK        -0.1981 
     24 N          24.7894   -1.6175   -5.4356 N.am      4 UNK        -0.4209 
     25 C          23.9742   -0.5531   -5.5096 C.2       3 UNK         0.4942 
     26 O          24.1981    0.4168   -6.2307 O.2       3 UNK        -0.5208 
     27 CA         22.7333   -0.5168   -4.5993 C.3       3 UNK         0.0250 
     28 CB         21.4887   -0.9718   -5.3768 C.3       3 UNK        -0.1990 
     29 N          22.8521   -1.3045   -3.3699 N.am      3 UNK        -0.4232 
     30 C          23.8046   -1.1678   -2.4367 C.2       2 UNK         0.4993 
     31 O          24.7171   -0.3407   -2.5061 O.2       2 UNK        -0.5286 
     32 CA         23.7885   -2.1727   -1.2670 C.3       2 UNK         0.0209 
     33 CB         22.4755   -2.9801   -1.1425 C.3       2 UNK        -0.1931 
     34 N          24.9394   -3.0848   -1.3274 N.am      2 UNK        -0.4546 
     35 C          25.3162   -3.8341   -2.3763 C.2       1 UNK         0.5154 
     36 O          24.7037   -3.8675   -3.4490 O.2       1 UNK        -0.5181 
     37 C          27.3637    2.2025   -4.4897 C.2       5 UNK         0.5014 
     38 O          28.2020    2.9669   -4.9673 O.2       5 UNK        -0.5248 
     39 N          26.0434    2.4464   -4.4923 N.am      6 UNK        -0.4434 
     40 CA         25.4164    3.6566   -5.0334 C.3       6 UNK         0.0363 
     41 CB         23.9234    3.6719   -4.6672 C.3       6 UNK        -0.1936 
     42 C          25.6070    3.8061   -6.5523 C.2       6 UNK         0.5081 
     43 O          25.8874    4.9080   -7.0244 O.2       6 UNK        -0.5248 
     44 N          25.4775    2.6919   -7.2839 N.am      7 UNK        -0.4718 
     45 CA         25.7272    2.6040   -8.7241 C.3       7 UNK         0.0273 
     46 CB         25.0747    1.3207   -9.2643 C.3       7 UNK        -0.1935 
     47 C          27.2225    2.6314   -9.0901 C.2       7 UNK         0.5018 
     48 O          27.5377    2.9065  -10.2482 O.2       7 UNK        -0.5186 
     49 N          28.0965    2.3347   -8.1141 N.am      8 UNK        -0.4240 
     50 CA         29.5510    2.1791   -8.2173 C.3       8 UNK         0.0235 
     51 CB         30.2331    3.5272   -8.5297 C.3       8 UNK        -0.2000 
     52 C          29.9198    1.0698   -9.2164 C.2       8 UNK         0.4941 
     53 O          30.4334    1.3553  -10.3010 O.2       8 UNK        -0.5273 
     54 N          29.5926   -0.1758   -8.8460 N.am      9 UNK        -0.4262 
     55 CA         29.8013   -1.3964   -9.6303 C.3       9 UNK         0.0264 
     56 CB         29.1007   -2.5659   -8.9194 C.3       9 UNK        -0.1955 
     57 C          31.2909   -1.6927   -9.8952 C.2       9 UNK         0.5031 
     58 O          31.9014   -2.4943   -9.1835 O.2       9 UNK        -0.5390 
     59 N          31.8422   -1.0163  -10.9111 N.am      10 UNK        -0.4204 
     60 CA         33.2315   -1.0093  -11.3807 C.3       10 UNK         0.0237 
     61 CB         33.7144   -2.4115  -11.8058 C.3       10 UNK        -0.1985 
     62 C          34.1891   -0.3428  -10.3814 C.2       10 UNK         0.4970 
     63 O          34.7914    0.6766  -10.7198 O.2       10 UNK        -0.4914 
     64 N          34.2992   -0.9221   -9.1796 N.am      11 UNK        -0.4285 
     65 CA         35.1096   -0.4438   -8.0463 C.3       11 UNK         0.1007 
     66 C          36.6429   -0.3418   -8.3230 C.2       11 UNK         0.5703 
     67 N          37.1837   -1.0689   -9.2938 N.am      11 UNK        -0.7361 
     68 O          37.3638    0.3727   -7.6299 O.2       11 UNK        -0.4986 
     69 C69        34.5066    0.8357   -7.3940 C.3       12 UNK        -0.0947 
     70 S70        32.8875    0.5072   -6.6177 S.3       12 UNK        -0.2240 
     71 C71        33.4648    0.0234   -4.9624 C.3       12 UNK         0.0194 
     72 H72        25.4092   -7.8586   -5.0386 H         1 UNK         0.0906 
     73 H73        27.0800   -7.3053   -5.1615 H         1 UNK         0.0906 
     74 H74        26.6813   -8.6817   -4.1315 H         1 UNK         0.0906 
     75 H75        27.4473   -5.4432   -3.9801 H         1 UNK         0.3140 
     76 H76        26.6053   -5.1218   -1.2480 H         1 UNK         0.1085 
     77 H77        27.7547   -2.9753   -1.3267 H         1 UNK         0.0836 
     78 H78        27.7979   -2.9573   -3.0647 H         1 UNK         0.0836 
     79 H79        29.6610   -3.6830   -4.4290 H         1 UNK         0.0731 
     80 H80        31.1650   -4.3185   -3.8156 H         1 UNK         0.0731 
     81 H81        32.2015   -2.3831   -5.0145 H         1 UNK         0.1312 
     82 H82        32.2323    1.3625   -2.9269 H         1 UNK         0.1406 
     83 H83        29.6480   -1.7673   -1.6162 H         1 UNK         0.1631 
     84 H84        31.1702    1.3050   -0.5880 H         1 UNK         0.0717 
     85 H85        29.8951    0.1629   -0.2558 H         1 UNK         0.0717 
     86 H86        27.8960   -0.0931   -1.9116 H         1 UNK         0.0934 
     87 H87        26.8318    1.2737   -1.9535 H         1 UNK         0.0934 
     88 H88        28.8489    0.6891   -4.1867 H         1 UNK         0.0739 
     89 H89        26.2257   -0.5329   -3.8359 H         1 UNK         0.3093 
     90 H90        25.8761   -1.4836   -7.1999 H         1 UNK         0.0818 
     91 H91        27.5294   -3.2644   -6.6261 H         1 UNK         0.0819 
     92 H92        25.8823   -3.8611   -6.5115 H         1 UNK         0.0819 
     93 H93        26.7872   -3.4644   -5.0563 H         1 UNK         0.0819 
     94 H94        24.5550   -2.3797   -4.8050 H         1 UNK         0.3041 
     95 H95        22.5872    0.5230   -4.3005 H         1 UNK         0.0784 
     96 H96        21.3596   -0.3828   -6.2862 H         1 UNK         0.0793 
     97 H97        21.5591   -2.0190   -5.6739 H         1 UNK         0.0793 
     98 H98        20.5820   -0.8496   -4.7838 H         1 UNK         0.0793 
     99 H99        22.1777   -2.0456   -3.2449 H         1 UNK         0.3024 
    100 H100       23.8997   -1.5760   -0.3599 H         1 UNK         0.1171 
    101 H101       22.4827   -3.5931   -0.2412 H         1 UNK         0.0786 
    102 H102       21.6094   -2.3208   -1.0682 H         1 UNK         0.0786 
    103 H103       22.3167   -3.6504   -1.9882 H         1 UNK         0.0786 
    104 H104       25.5219   -3.0925   -0.5014 H         1 UNK         0.2977 
    105 H105       25.4234    1.7535   -4.0972 H         1 UNK         0.3127 
    106 H106       25.8926    4.5156   -4.5557 H         1 UNK         0.0770 
    107 H107       23.3877    2.8332   -5.1130 H         1 UNK         0.0814 
    108 H108       23.4465    4.5864   -5.0224 H         1 UNK         0.0814 
    109 H109       23.7772    3.6298   -3.5878 H         1 UNK         0.0814 
    110 H110       25.1570    1.8399   -6.8247 H         1 UNK         0.2983 
    111 H111       25.2548    3.4613   -9.2089 H         1 UNK         0.0947 
    112 H112       24.0047    1.3012   -9.0566 H         1 UNK         0.0806 
    113 H113       25.5176    0.4282   -8.8207 H         1 UNK         0.0806 
    114 H114       25.1974    1.2436  -10.3455 H         1 UNK         0.0806 
    115 H115       27.7121    2.1263   -7.2023 H         1 UNK         0.3000 
    116 H116       29.9000    1.8533   -7.2354 H         1 UNK         0.0850 
    117 H117       31.3181    3.4165   -8.5409 H         1 UNK         0.0810 
    118 H118       29.9895    4.2754   -7.7754 H         1 UNK         0.0810 
    119 H119       29.9365    3.9213   -9.5021 H         1 UNK         0.0810 
    120 H120       29.1366   -0.2957   -7.9423 H         1 UNK         0.3040 
    121 H121       29.3126   -1.2591  -10.5972 H         1 UNK         0.0766 
    122 H122       28.0278   -2.3911   -8.8396 H         1 UNK         0.0812 
    123 H123       29.4962   -2.7162   -7.9139 H         1 UNK         0.0812 
    124 H124       29.2382   -3.4983   -9.4685 H         1 UNK         0.0812 
    125 H125       31.2661   -0.2728  -11.2939 H         1 UNK         0.3205 
    126 H126       33.2320   -0.3856  -12.2762 H         1 UNK         0.0754 
    127 H127       33.0619   -2.8378  -12.5679 H         1 UNK         0.0769 
    128 H128       33.7511   -3.1113  -10.9707 H         1 UNK         0.0769 
    129 H129       34.7179   -2.3628  -12.2303 H         1 UNK         0.0769 
    130 H130       33.6975   -1.7196   -8.9957 H         1 UNK         0.2981 
    131 H131       35.0464   -1.2400   -7.3046 H         1 UNK         0.0541 
    132 H132       36.6097   -1.6707   -9.8618 H         1 UNK         0.3459 
    133 H133       38.1757   -1.0090   -9.4612 H         1 UNK         0.3459 
    134 H134       35.1689    1.2449   -6.6295 H         1 UNK         0.0612 
    135 H135       34.3854    1.6268   -8.1352 H         1 UNK         0.0612 
    136 H136       34.2087   -0.7689   -5.0557 H         1 UNK         0.0624 
    137 H137       33.9770    0.8704   -4.5031 H         1 UNK         0.0624 
@<TRIPOS>BOND
     1    1    2 1    
     2    1   72 1    
     3    1   73 1    
     4    1   74 1    
     5    2    3 2    
     6    2    4 am   BACKBONE|DICT|INTERRES
     7    4    5 1    
     8    4   75 1    
     9    5    6 1    
    10    5   35 1    
    11    5   76 1    
    12    6    7 1    
    13    6   77 1    
    14    6   78 1    
    15    7    8 1    
    16    8    9 1    
    17    8   79 1    
    18    8   80 1    
    19    9   10 ar   
    20    9   14 ar   
    21   10   11 ar   
    22   10   81 1    
    23   11   12 ar   
    24   11   71 1    
    25   12   13 ar   
    26   12   82 1    
    27   13   14 ar   
    28   13   15 1    
    29   14   83 1    
    30   15   16 1    
    31   15   84 1    
    32   15   85 1    
    33   16   17 1    
    34   17   18 1    
    35   17   86 1    
    36   17   87 1    
    37   18   19 1    
    38   18   37 1    
    39   18   88 1    
    40   19   20 am   BACKBONE|DICT|INTERRES
    41   19   89 1    
    42   20   21 2    
    43   20   22 1    
    44   22   23 1    
    45   22   24 1    
    46   22   90 1    
    47   23   91 1    
    48   23   92 1    
    49   23   93 1    
    50   24   25 am   BACKBONE|DICT|INTERRES
    51   24   94 1    
    52   25   26 2    
    53   25   27 1    
    54   27   28 1    
    55   27   29 1    
    56   27   95 1    
    57   28   96 1    
    58   28   97 1    
    59   28   98 1    
    60   29   30 am   BACKBONE|DICT|INTERRES
    61   29   99 1    
    62   30   31 2    
    63   30   32 1    
    64   32   33 1    
    65   32   34 1    
    66   32  100 1    
    67   33  101 1    
    68   33  102 1    
    69   33  103 1    
    70   34   35 am   BACKBONE|DICT|INTERRES
    71   34  104 1    
    72   35   36 2    
    73   37   38 2    
    74   37   39 am   BACKBONE|DICT|INTERRES
    75   39   40 1    
    76   39  105 1    
    77   40   41 1    
    78   40   42 1    
    79   40  106 1    
    80   41  107 1    
    81   41  108 1    
    82   41  109 1    
    83   42   43 2    
    84   42   44 am   BACKBONE|DICT|INTERRES
    85   44   45 1    
    86   44  110 1    
    87   45   46 1    
    88   45   47 1    
    89   45  111 1    
    90   46  112 1    
    91   46  113 1    
    92   46  114 1    
    93   47   48 2    
    94   47   49 am   BACKBONE|DICT|INTERRES
    95   49   50 1    
    96   49  115 1    
    97   50   51 1    
    98   50   52 1    
    99   50  116 1    
   100   51  117 1    
   101   51  118 1    
   102   51  119 1    
   103   52   53 2    
   104   52   54 am   BACKBONE|DICT|INTERRES
   105   54   55 1    
   106   54  120 1    
   107   55   56 1    
   108   55   57 1    
   109   55  121 1    
   110   56  122 1    
   111   56  123 1    
   112   56  124 1    
   113   57   58 2    
   114   57   59 am   BACKBONE|DICT|INTERRES
   115   59   60 1    
   116   59  125 1    
   117   60   61 1    
   118   60   62 1    
   119   60  126 1    
   120   61  127 1    
   121   61  128 1    
   122   61  129 1    
   123   62   63 2    
   124   62   64 am   BACKBONE|DICT|INTERRES
   125   64   65 1    
   126   64  130 1    
   127   65   66 1    
   128   65   69 1    
   129   65  131 1    
   130   66   67 am   BACKBONE|DICT|INTERRES
   131   66   68 2    
   132   67  132 1    
   133   67  133 1    
   134   69   70 1    
   135   69  134 1    
   136   69  135 1    
   137   70   71 1    
   138   71  136 1    
   139   71  137 1    
@<TRIPOS>SUBSTRUCTURE
     1 UNK         1 GROUP             0       ****    0 ROOT    
