@<TRIPOS>MOLECULE
3R137
137   139    1
SMALL
USER_CHARGES


@<TRIPOS>ATOM
      1 CA         25.2747   -2.5040    4.6744 C.3       0 UNK        -0.2020 
      2 C          25.8002   -2.1058    3.3031 C.2       0 UNK         0.4855 
      3 O          25.4327   -1.0478    2.7906 O.2       0 UNK        -0.5197 
      4 N          26.6632   -2.9395    2.7088 N.am      1 UNK        -0.4892 
      5 CA         27.2112   -2.7498    1.3615 C.3       1 UNK         0.0835 
      6 C6         28.5189   -3.5616    1.1761 C.3       12 UNK        -0.0855 
      7 S7         29.5690   -2.8894   -0.1572 S.3       12 UNK        -0.2931 
      8 C8         29.4696   -4.2348   -1.3897 C.3       12 UNK         0.0378 
      9 C9         29.9287   -3.8637   -2.8019 C.ar      12 UNK        -0.0802 
     10 C10        30.7814   -2.7859   -3.0639 C.ar      12 UNK        -0.0944 
     11 C11        31.1956   -2.4831   -4.3651 C.ar      12 UNK        -0.0787 
     12 C12        30.7497   -3.2863   -5.4263 C.ar      12 UNK        -0.0862 
     13 C13        29.9055   -4.3776   -5.1799 C.ar      12 UNK        -0.0733 
     14 C14        29.5028   -4.6546   -3.8704 C.ar      12 UNK        -0.0832 
     15 C15        29.4534   -5.3050   -6.3035 C.3       12 UNK         0.0240 
     16 S16        28.3918   -4.5190   -7.5592 S.3       12 UNK        -0.2522 
     17 C17        27.0944   -3.6536   -6.5982 C.3       12 UNK        -0.0967 
     18 CA         26.7054   -2.3172   -7.2790 C.3       5 UNK         0.0660 
     19 N          25.4800   -1.7213   -6.7418 N.am      5 UNK        -0.4015 
     20 C          24.7944   -0.7441   -7.3574 C.2       4 UNK         0.4946 
     21 O          25.0887   -0.2908   -8.4634 O.2       4 UNK        -0.5353 
     22 CA         23.6063   -0.1333   -6.5962 C.3       4 UNK         0.0277 
     23 CB         22.3638   -1.0306   -6.7128 C.3       4 UNK        -0.1981 
     24 N          23.9080    0.1162   -5.1860 N.am      4 UNK        -0.4209 
     25 C          24.8392    0.9769   -4.7492 C.2       3 UNK         0.4942 
     26 O          25.5001    1.7072   -5.4873 O.2       3 UNK        -0.5208 
     27 CA         25.1140    0.9895   -3.2348 C.3       3 UNK         0.0250 
     28 CB         24.1871    1.9920   -2.5292 C.3       3 UNK        -0.1990 
     29 N          25.0013   -0.3246   -2.5872 N.am      3 UNK        -0.4232 
     30 C          25.6784   -1.4246   -2.9461 C.2       2 UNK         0.4993 
     31 O          26.4653   -1.4682   -3.8936 O.2       2 UNK        -0.5286 
     32 CA         25.4694   -2.6638   -2.0737 C.3       2 UNK         0.0209 
     33 CB         25.7706   -3.9749   -2.8271 C.3       2 UNK        -0.1931 
     34 N          26.3487   -2.5240   -0.9190 N.am      2 UNK        -0.4546 
     35 C          26.1567   -3.0816    0.2802 C.2       1 UNK         0.5154 
     36 O          25.2141   -3.8359    0.5388 O.2       1 UNK        -0.5181 
     37 C          27.8597   -1.3017   -7.2567 C.2       5 UNK         0.5014 
     38 O          28.5532   -1.1757   -8.2638 O.2       5 UNK        -0.5248 
     39 N          28.0175   -0.5691   -6.1441 N.am      6 UNK        -0.4434 
     40 CA         29.0424    0.4652   -5.9849 C.3       6 UNK         0.0363 
     41 CB         28.9791    1.0631   -4.5725 C.3       6 UNK        -0.1936 
     42 C          28.9749    1.5611   -7.0619 C.2       6 UNK         0.5081 
     43 O          30.0156    1.9490   -7.5964 O.2       6 UNK        -0.5248 
     44 N          27.7501    1.9929   -7.3927 N.am      7 UNK        -0.4718 
     45 CA         27.4574    2.9034   -8.4972 C.3       7 UNK         0.0273 
     46 CB         26.0088    3.4046   -8.3802 C.3       7 UNK        -0.1935 
     47 C          27.7081    2.2676   -9.8752 C.2       7 UNK         0.5018 
     48 O          28.3901    2.8801  -10.6966 O.2       7 UNK        -0.5186 
     49 N          27.1608    1.0642  -10.1096 N.am      8 UNK        -0.4240 
     50 CA         27.2438    0.3509  -11.3906 C.3       8 UNK         0.0235 
     51 CB         26.3051   -0.8659  -11.3763 C.3       8 UNK        -0.2000 
     52 C          28.6694   -0.0772  -11.7745 C.2       8 UNK         0.4941 
     53 O          29.0556    0.0841  -12.9330 O.2       8 UNK        -0.5273 
     54 N          29.4275   -0.6027  -10.8036 N.am      9 UNK        -0.4262 
     55 CA         30.8286   -0.9978  -10.9654 C.3       9 UNK         0.0264 
     56 CB         31.2047   -1.9950   -9.8559 C.3       9 UNK        -0.1955 
     57 C          31.7927    0.2005  -10.9510 C.2       9 UNK         0.5031 
     58 O          32.9342    0.0440  -11.3870 O.2       9 UNK        -0.5390 
     59 N          31.3266    1.3540  -10.4452 N.am      10 UNK        -0.4204 
     60 CA         32.0638    2.6024  -10.2302 C.3       10 UNK         0.0237 
     61 CB         32.4565    3.2506  -11.5751 C.3       10 UNK        -0.1985 
     62 C          33.2552    2.3930   -9.2784 C.2       10 UNK         0.4970 
     63 O          34.3974    2.6838   -9.6410 O.2       10 UNK        -0.4914 
     64 N          32.9585    1.8545   -8.0882 N.am      11 UNK        -0.4285 
     65 CA         33.9349    1.5734   -7.0255 C.3       11 UNK         0.1007 
     66 C          34.6678    2.8517   -6.5278 C.2       11 UNK         0.5703 
     67 N          35.9502    2.7467   -6.2061 N.am      11 UNK        -0.7361 
     68 O          34.0746    3.9202   -6.3881 O.2       11 UNK        -0.4986 
     69 C69        33.2788    0.8432   -5.8281 C.3       12 UNK        -0.0947 
     70 S70        32.6275   -0.8153   -6.2191 S.3       12 UNK        -0.2240 
     71 C71        32.1234   -1.2774   -4.5264 C.3       12 UNK         0.0194 
     72 H72        25.6907   -3.4534    5.0116 H         1 UNK         0.0906 
     73 H73        25.5303   -1.7419    5.4102 H         1 UNK         0.0906 
     74 H74        24.1897   -2.6005    4.6463 H         1 UNK         0.0906 
     75 H75        26.8982   -3.8125    3.1599 H         1 UNK         0.3140 
     76 H76        27.4543   -1.6884    1.2661 H         1 UNK         0.1085 
     77 H77        29.1161   -3.5135    2.0884 H         1 UNK         0.0836 
     78 H78        28.3127   -4.6220    1.0163 H         1 UNK         0.0836 
     79 H79        28.4378   -4.5858   -1.4338 H         1 UNK         0.0731 
     80 H80        30.0678   -5.0760   -1.0370 H         1 UNK         0.0731 
     81 H81        31.1386   -2.1703   -2.2506 H         1 UNK         0.1312 
     82 H82        31.0558   -3.0779   -6.4417 H         1 UNK         0.1406 
     83 H83        28.8591   -5.5026   -3.6781 H         1 UNK         0.1631 
     84 H84        28.9191   -6.1672   -5.9014 H         1 UNK         0.0717 
     85 H85        30.3366   -5.7070   -6.8017 H         1 UNK         0.0717 
     86 H86        26.2272   -4.3128   -6.5401 H         1 UNK         0.0934 
     87 H87        27.4159   -3.4826   -5.5703 H         1 UNK         0.0934 
     88 H88        26.5005   -2.5413   -8.3283 H         1 UNK         0.0739 
     89 H89        25.2342   -1.9711   -5.7947 H         1 UNK         0.3093 
     90 H90        23.3774    0.8281   -7.0616 H         1 UNK         0.0818 
     91 H91        21.4926   -0.5631   -6.2536 H         1 UNK         0.0819 
     92 H92        22.1152   -1.2158   -7.7589 H         1 UNK         0.0819 
     93 H93        22.5146   -2.0006   -6.2374 H         1 UNK         0.0819 
     94 H94        23.4056   -0.4319   -4.5032 H         1 UNK         0.3041 
     95 H95        26.1423    1.3264   -3.0950 H         1 UNK         0.0784 
     96 H96        24.2689    2.9824   -2.9798 H         1 UNK         0.0793 
     97 H97        23.1407    1.6907   -2.5927 H         1 UNK         0.0793 
     98 H98        24.4439    2.0971   -1.4749 H         1 UNK         0.0793 
     99 H99        24.3980   -0.3733   -1.7782 H         1 UNK         0.3024 
    100 H100       24.4277   -2.6833   -1.7446 H         1 UNK         0.1171 
    101 H101       25.6022   -4.8463   -2.1944 H         1 UNK         0.0786 
    102 H102       25.1266   -4.0791   -3.7009 H         1 UNK         0.0786 
    103 H103       26.8015   -4.0102   -3.1770 H         1 UNK         0.0786 
    104 H104       27.1607   -1.9365   -1.0614 H         1 UNK         0.2977 
    105 H105       27.4254   -0.7689   -5.3400 H         1 UNK         0.3127 
    106 H106       29.9991   -0.0370   -6.0982 H         1 UNK         0.0770 
    107 H107       28.0608    1.6280   -4.4169 H         1 UNK         0.0814 
    108 H108       29.8130    1.7458   -4.4049 H         1 UNK         0.0814 
    109 H109       29.0337    0.2868   -3.8087 H         1 UNK         0.0814 
    110 H110       26.9562    1.6554   -6.8553 H         1 UNK         0.2983 
    111 H111       28.1226    3.7650   -8.4051 H         1 UNK         0.0947 
    112 H112       25.7653    4.0924   -9.1910 H         1 UNK         0.0806 
    113 H113       25.8505    3.9380   -7.4427 H         1 UNK         0.0806 
    114 H114       25.2915    2.5836   -8.4189 H         1 UNK         0.0806 
    115 H115       26.5971    0.6277   -9.3848 H         1 UNK         0.3000 
    116 H116       26.8917    1.0351  -12.1656 H         1 UNK         0.0850 
    117 H117       26.3420   -1.4010  -12.3262 H         1 UNK         0.0810 
    118 H118       25.2698   -0.5658  -11.2143 H         1 UNK         0.0810 
    119 H119       26.5756   -1.5729  -10.5915 H         1 UNK         0.0810 
    120 H120       29.0261   -0.7365   -9.8724 H         1 UNK         0.3040 
    121 H121       30.9391   -1.5011  -11.9283 H         1 UNK         0.0766 
    122 H122       31.1547   -1.5342   -8.8685 H         1 UNK         0.0812 
    123 H123       32.2218   -2.3651   -9.9900 H         1 UNK         0.0812 
    124 H124       30.5402   -2.8593   -9.8535 H         1 UNK         0.0812 
    125 H125       30.3744    1.3568  -10.1037 H         1 UNK         0.3205 
    126 H126       31.3767    3.2832   -9.7248 H         1 UNK         0.0754 
    127 H127       32.9237    4.2232  -11.4161 H         1 UNK         0.0769 
    128 H128       31.5814    3.4099  -12.2053 H         1 UNK         0.0769 
    129 H129       33.1644    2.6372  -12.1332 H         1 UNK         0.0769 
    130 H130       31.9824    1.6931   -7.8600 H         1 UNK         0.2981 
    131 H131       34.6849    0.9079   -7.4573 H         1 UNK         0.0541 
    132 H132       36.4431    1.8726   -6.3044 H         1 UNK         0.3459 
    133 H133       36.4380    3.5608   -5.8663 H         1 UNK         0.3459 
    134 H134       32.4649    1.4473   -5.4218 H         1 UNK         0.0612 
    135 H135       34.0029    0.7216   -5.0196 H         1 UNK         0.0612 
    136 H136       33.0285   -1.4548   -3.9437 H         1 UNK         0.0624 
    137 H137       31.6291   -0.4176   -4.0718 H         1 UNK         0.0624 
@<TRIPOS>BOND
     1    1    2 1    
     2    1   72 1    
     3    1   73 1    
     4    1   74 1    
     5    2    3 2    
     6    2    4 am   BACKBONE|DICT|INTERRES
     7    4    5 1    
     8    4   75 1    
     9    5    6 1    
    10    5   35 1    
    11    5   76 1    
    12    6    7 1    
    13    6   77 1    
    14    6   78 1    
    15    7    8 1    
    16    8    9 1    
    17    8   79 1    
    18    8   80 1    
    19    9   10 ar   
    20    9   14 ar   
    21   10   11 ar   
    22   10   81 1    
    23   11   12 ar   
    24   11   71 1    
    25   12   13 ar   
    26   12   82 1    
    27   13   14 ar   
    28   13   15 1    
    29   14   83 1    
    30   15   16 1    
    31   15   84 1    
    32   15   85 1    
    33   16   17 1    
    34   17   18 1    
    35   17   86 1    
    36   17   87 1    
    37   18   19 1    
    38   18   37 1    
    39   18   88 1    
    40   19   20 am   BACKBONE|DICT|INTERRES
    41   19   89 1    
    42   20   21 2    
    43   20   22 1    
    44   22   23 1    
    45   22   24 1    
    46   22   90 1    
    47   23   91 1    
    48   23   92 1    
    49   23   93 1    
    50   24   25 am   BACKBONE|DICT|INTERRES
    51   24   94 1    
    52   25   26 2    
    53   25   27 1    
    54   27   28 1    
    55   27   29 1    
    56   27   95 1    
    57   28   96 1    
    58   28   97 1    
    59   28   98 1    
    60   29   30 am   BACKBONE|DICT|INTERRES
    61   29   99 1    
    62   30   31 2    
    63   30   32 1    
    64   32   33 1    
    65   32   34 1    
    66   32  100 1    
    67   33  101 1    
    68   33  102 1    
    69   33  103 1    
    70   34   35 am   BACKBONE|DICT|INTERRES
    71   34  104 1    
    72   35   36 2    
    73   37   38 2    
    74   37   39 am   BACKBONE|DICT|INTERRES
    75   39   40 1    
    76   39  105 1    
    77   40   41 1    
    78   40   42 1    
    79   40  106 1    
    80   41  107 1    
    81   41  108 1    
    82   41  109 1    
    83   42   43 2    
    84   42   44 am   BACKBONE|DICT|INTERRES
    85   44   45 1    
    86   44  110 1    
    87   45   46 1    
    88   45   47 1    
    89   45  111 1    
    90   46  112 1    
    91   46  113 1    
    92   46  114 1    
    93   47   48 2    
    94   47   49 am   BACKBONE|DICT|INTERRES
    95   49   50 1    
    96   49  115 1    
    97   50   51 1    
    98   50   52 1    
    99   50  116 1    
   100   51  117 1    
   101   51  118 1    
   102   51  119 1    
   103   52   53 2    
   104   52   54 am   BACKBONE|DICT|INTERRES
   105   54   55 1    
   106   54  120 1    
   107   55   56 1    
   108   55   57 1    
   109   55  121 1    
   110   56  122 1    
   111   56  123 1    
   112   56  124 1    
   113   57   58 2    
   114   57   59 am   BACKBONE|DICT|INTERRES
   115   59   60 1    
   116   59  125 1    
   117   60   61 1    
   118   60   62 1    
   119   60  126 1    
   120   61  127 1    
   121   61  128 1    
   122   61  129 1    
   123   62   63 2    
   124   62   64 am   BACKBONE|DICT|INTERRES
   125   64   65 1    
   126   64  130 1    
   127   65   66 1    
   128   65   69 1    
   129   65  131 1    
   130   66   67 am   BACKBONE|DICT|INTERRES
   131   66   68 2    
   132   67  132 1    
   133   67  133 1    
   134   69   70 1    
   135   69  134 1    
   136   69  135 1    
   137   70   71 1    
   138   71  136 1    
   139   71  137 1    
@<TRIPOS>SUBSTRUCTURE
     1 UNK         1 GROUP             0       ****    0 ROOT    
