@<TRIPOS>MOLECULE
3R137
137   139    1
SMALL
USER_CHARGES


@<TRIPOS>ATOM
      1 CA         29.3507   -6.4449   -1.4413 C.3       0 UNK        -0.2020 
      2 C          28.5968   -5.4240   -0.6024 C.2       0 UNK         0.4855 
      3 O          27.8315   -5.8035    0.2840 O.2       0 UNK        -0.5197 
      4 N          28.8055   -4.1302   -0.8772 N.am      1 UNK        -0.4892 
      5 CA         28.1512   -3.0101   -0.1894 C.3       1 UNK         0.0835 
      6 C6         28.9323   -1.6873   -0.3775 C.3       12 UNK        -0.0855 
      7 S7         30.6048   -1.7096    0.3700 S.3       12 UNK        -0.2931 
      8 C8         31.7029   -2.3577   -0.9426 C.3       12 UNK         0.0378 
      9 C9         31.3896   -1.7872   -2.3182 C.ar      12 UNK        -0.0802 
     10 C10        31.5599   -0.4226   -2.5726 C.ar      12 UNK        -0.0944 
     11 C11        31.1969    0.1220   -3.8080 C.ar      12 UNK        -0.0787 
     12 C12        30.6589   -0.7170   -4.7911 C.ar      12 UNK        -0.0862 
     13 C13        30.5065   -2.0850   -4.5555 C.ar      12 UNK        -0.0733 
     14 C14        30.8873   -2.6185   -3.3238 C.ar      12 UNK        -0.0832 
     15 C15        29.9184   -2.9826   -5.6288 C.3       12 UNK         0.0240 
     16 S16        28.1446   -3.2751   -5.3311 S.3       12 UNK        -0.2522 
     17 C17        27.4924   -3.2488   -7.0380 C.3       12 UNK        -0.0967 
     18 CA         26.6988   -1.9796   -7.4560 C.3       5 UNK         0.0660 
     19 N          25.3163   -1.9718   -6.9687 N.am      5 UNK        -0.4015 
     20 C          24.2926   -1.4596   -7.6715 C.2       4 UNK         0.4946 
     21 O          24.4089   -0.9788   -8.7992 O.2       4 UNK        -0.5353 
     22 CA         22.8988   -1.4769   -7.0215 C.3       4 UNK         0.0277 
     23 CB         22.2090   -2.8299   -7.2606 C.3       4 UNK        -0.1981 
     24 N          22.9200   -1.1867   -5.5889 N.am      4 UNK        -0.4209 
     25 C          23.2884   -0.0167   -5.0473 C.2       3 UNK         0.4942 
     26 O          23.6209    0.9701   -5.7016 O.2       3 UNK        -0.5208 
     27 CA         23.3260    0.0483   -3.5099 C.3       3 UNK         0.0250 
     28 CB         21.9778    0.5395   -2.9589 C.3       3 UNK        -0.1990 
     29 N          23.6788   -1.2289   -2.8776 N.am      3 UNK        -0.4232 
     30 C          24.8289   -1.8847   -3.0837 C.2       2 UNK         0.4993 
     31 O          25.7146   -1.4899   -3.8461 O.2       2 UNK        -0.5286 
     32 CA         24.9825   -3.2423   -2.3872 C.3       2 UNK         0.0209 
     33 CB         24.7611   -4.3862   -3.3910 C.3       2 UNK        -0.1931 
     34 N          26.3154   -3.3672   -1.8034 N.am      2 UNK        -0.4546 
     35 C          26.6821   -2.8288   -0.6316 C.2       1 UNK         0.5154 
     36 O          25.9069   -2.2100    0.0999 O.2       1 UNK        -0.5181 
     37 C          27.4012   -0.6447   -7.1371 C.2       5 UNK         0.5014 
     38 O          28.1477   -0.1509   -7.9799 O.2       5 UNK        -0.5248 
     39 N          27.1158   -0.0527   -5.9656 N.am      6 UNK        -0.4434 
     40 CA         27.6457    1.2458   -5.5305 C.3       6 UNK         0.0363 
     41 CB         27.3047    1.4611   -4.0485 C.3       6 UNK        -0.1936 
     42 C          27.1865    2.4424   -6.3847 C.2       6 UNK         0.5081 
     43 O          27.8383    3.4863   -6.3570 O.2       6 UNK        -0.5248 
     44 N          26.0939    2.2760   -7.1412 N.am      7 UNK        -0.4718 
     45 CA         25.6162    3.2289   -8.1453 C.3       7 UNK         0.0273 
     46 CB         24.1615    2.8828   -8.5039 C.3       7 UNK        -0.1935 
     47 C          26.4856    3.2771   -9.4189 C.2       7 UNK         0.5018 
     48 O          26.3379    4.2200  -10.1983 O.2       7 UNK        -0.5186 
     49 N          27.3518    2.2763   -9.6244 N.am      8 UNK        -0.4240 
     50 CA         28.2684    2.1626  -10.7571 C.3       8 UNK         0.0235 
     51 CB         28.0121    0.8112  -11.4484 C.3       8 UNK        -0.2000 
     52 C          29.7192    2.2423  -10.2626 C.2       8 UNK         0.4941 
     53 O          29.9793    2.1388   -9.0621 O.2       8 UNK        -0.5273 
     54 N          30.6661    2.3576  -11.2025 N.am      9 UNK        -0.4262 
     55 CA         32.1138    2.3440  -10.9507 C.3       9 UNK         0.0264 
     56 CB         32.8308    3.0312  -12.1284 C.3       9 UNK        -0.1955 
     57 C          32.6594    0.9240  -10.6710 C.2       9 UNK         0.5031 
     58 O          33.6938    0.5402  -11.2199 O.2       9 UNK        -0.5390 
     59 N          31.9491    0.1652   -9.8286 N.am      10 UNK        -0.4204 
     60 CA         32.2483   -1.2187   -9.4515 C.3       10 UNK         0.0237 
     61 CB         30.9333   -2.0181   -9.4652 C.3       10 UNK        -0.1985 
     62 C          32.9503   -1.3218   -8.0841 C.2       10 UNK         0.4970 
     63 O          33.1659   -2.4353   -7.6048 O.2       10 UNK        -0.4914 
     64 N          33.2828   -0.1765   -7.4749 N.am      11 UNK        -0.4285 
     65 CA         33.9007   -0.0630   -6.1438 C.3       11 UNK         0.1007 
     66 C          35.3833   -0.5302   -6.0592 C.2       11 UNK         0.5703 
     67 N          36.0752   -0.7605   -7.1691 N.am      11 UNK        -0.7361 
     68 O          35.9155   -0.6891   -4.9632 O.2       11 UNK        -0.4986 
     69 C69        33.7404    1.3663   -5.5548 C.3       12 UNK        -0.0947 
     70 S70        32.0448    2.0343   -5.6814 S.3       12 UNK        -0.2240 
     71 C71        31.3516    1.6210   -4.0473 C.3       12 UNK         0.0194 
     72 H72        29.9902   -7.0548   -0.8036 H         1 UNK         0.0906 
     73 H73        28.6476   -7.1050   -1.9488 H         1 UNK         0.0906 
     74 H74        29.9774   -5.9735   -2.1977 H         1 UNK         0.0906 
     75 H75        29.4452   -3.8677   -1.6102 H         1 UNK         0.3140 
     76 H76        28.1269   -3.2367    0.8792 H         1 UNK         0.1085 
     77 H77        28.3963   -0.8709    0.1111 H         1 UNK         0.0836 
     78 H78        28.9744   -1.4052   -1.4302 H         1 UNK         0.0836 
     79 H79        31.6381   -3.4466   -0.9491 H         1 UNK         0.0731 
     80 H80        32.7360   -2.1208   -0.6847 H         1 UNK         0.0731 
     81 H81        31.9477    0.2184   -1.7925 H         1 UNK         0.1312 
     82 H82        30.3682   -0.3095   -5.7491 H         1 UNK         0.1406 
     83 H83        30.7703   -3.6786   -3.1505 H         1 UNK         0.1631 
     84 H84        30.4448   -3.9378   -5.6562 H         1 UNK         0.0717 
     85 H85        30.0731   -2.5217   -6.6039 H         1 UNK         0.0717 
     86 H86        28.3169   -3.4017   -7.7362 H         1 UNK         0.0934 
     87 H87        26.8612   -4.1297   -7.1650 H         1 UNK         0.0934 
     88 H88        26.6559   -2.0278   -8.5469 H         1 UNK         0.0739 
     89 H89        25.1664   -2.2942   -6.0226 H         1 UNK         0.3093 
     90 H90        22.3026   -0.7003   -7.5060 H         1 UNK         0.0818 
     91 H91        22.1619   -3.0598   -8.3261 H         1 UNK         0.0819 
     92 H92        22.7402   -3.6490   -6.7741 H         1 UNK         0.0819 
     93 H93        21.1845   -2.8248   -6.8880 H         1 UNK         0.0819 
     94 H94        22.6502   -1.9340   -4.9667 H         1 UNK         0.3041 
     95 H95        24.0909    0.7751   -3.2316 H         1 UNK         0.0784 
     96 H96        21.7041    1.4997   -3.3989 H         1 UNK         0.0793 
     97 H97        21.1706   -0.1608   -3.1777 H         1 UNK         0.0793 
     98 H98        22.0177    0.6811   -1.8787 H         1 UNK         0.0793 
     99 H99        22.9976   -1.6206   -2.2426 H         1 UNK         0.3024 
    100 H100       24.2385   -3.3294   -1.5917 H         1 UNK         0.1171 
    101 H101       24.8556   -5.3592   -2.9084 H         1 UNK         0.0786 
    102 H102       23.7624   -4.3382   -3.8269 H         1 UNK         0.0786 
    103 H103       25.4779   -4.3506   -4.2123 H         1 UNK         0.0786 
    104 H104       27.0220   -3.8108   -2.3715 H         1 UNK         0.2977 
    105 H105       26.5401   -0.5531   -5.2911 H         1 UNK         0.3127 
    106 H106       28.7303    1.2087   -5.6266 H         1 UNK         0.0770 
    107 H107       26.2277    1.5053   -3.8903 H         1 UNK         0.0814 
    108 H108       27.7289    2.3961   -3.6807 H         1 UNK         0.0814 
    109 H109       27.7045    0.6568   -3.4299 H         1 UNK         0.0814 
    110 H110       25.5718    1.4147   -7.0454 H         1 UNK         0.2983 
    111 H111       25.6327    4.2283   -7.7051 H         1 UNK         0.0947 
    112 H112       24.0777    1.8779   -8.9201 H         1 UNK         0.0806 
    113 H113       23.7625    3.5780   -9.2438 H         1 UNK         0.0806 
    114 H114       23.5139    2.9379   -7.6288 H         1 UNK         0.0806 
    115 H115       27.4890    1.5829   -8.8948 H         1 UNK         0.3000 
    116 H116       28.1054    2.9703  -11.4737 H         1 UNK         0.0850 
    117 H117       28.6406    0.6884  -12.3311 H         1 UNK         0.0810 
    118 H118       26.9762    0.7266  -11.7772 H         1 UNK         0.0810 
    119 H119       28.2181   -0.0276  -10.7815 H         1 UNK         0.0810 
    120 H120       30.3831    2.3974  -12.1715 H         1 UNK         0.3040 
    121 H121       32.3129    2.9371  -10.0553 H         1 UNK         0.0766 
    122 H122       32.4612    4.0453  -12.2818 H         1 UNK         0.0812 
    123 H123       32.6971    2.4794  -13.0597 H         1 UNK         0.0812 
    124 H124       33.9036    3.1066  -11.9449 H         1 UNK         0.0812 
    125 H125       31.1341    0.5948   -9.3951 H         1 UNK         0.3205 
    126 H126       32.9212   -1.6661  -10.1859 H         1 UNK         0.0754 
    127 H127       31.0973   -3.0620   -9.1945 H         1 UNK         0.0769 
    128 H128       30.4779   -2.0101  -10.4557 H         1 UNK         0.0769 
    129 H129       30.2079   -1.6056   -8.7651 H         1 UNK         0.0769 
    130 H130       33.0644    0.6951   -7.9320 H         1 UNK         0.2981 
    131 H131       33.3557   -0.7453   -5.4907 H         1 UNK         0.0541 
    132 H132       35.6483   -0.6352   -8.0727 H         1 UNK         0.3459 
    133 H133       37.0333   -1.0653   -7.0996 H         1 UNK         0.3459 
    134 H134       34.0499    1.3849   -4.5082 H         1 UNK         0.0612 
    135 H135       34.3999    2.0620   -6.0767 H         1 UNK         0.0612 
    136 H136       31.9802    2.0738   -3.2789 H         1 UNK         0.0624 
    137 H137       30.3714    2.0898   -3.9574 H         1 UNK         0.0624 
@<TRIPOS>BOND
     1    1    2 1    
     2    1   72 1    
     3    1   73 1    
     4    1   74 1    
     5    2    3 2    
     6    2    4 am   BACKBONE|DICT|INTERRES
     7    4    5 1    
     8    4   75 1    
     9    5    6 1    
    10    5   35 1    
    11    5   76 1    
    12    6    7 1    
    13    6   77 1    
    14    6   78 1    
    15    7    8 1    
    16    8    9 1    
    17    8   79 1    
    18    8   80 1    
    19    9   10 ar   
    20    9   14 ar   
    21   10   11 ar   
    22   10   81 1    
    23   11   12 ar   
    24   11   71 1    
    25   12   13 ar   
    26   12   82 1    
    27   13   14 ar   
    28   13   15 1    
    29   14   83 1    
    30   15   16 1    
    31   15   84 1    
    32   15   85 1    
    33   16   17 1    
    34   17   18 1    
    35   17   86 1    
    36   17   87 1    
    37   18   19 1    
    38   18   37 1    
    39   18   88 1    
    40   19   20 am   BACKBONE|DICT|INTERRES
    41   19   89 1    
    42   20   21 2    
    43   20   22 1    
    44   22   23 1    
    45   22   24 1    
    46   22   90 1    
    47   23   91 1    
    48   23   92 1    
    49   23   93 1    
    50   24   25 am   BACKBONE|DICT|INTERRES
    51   24   94 1    
    52   25   26 2    
    53   25   27 1    
    54   27   28 1    
    55   27   29 1    
    56   27   95 1    
    57   28   96 1    
    58   28   97 1    
    59   28   98 1    
    60   29   30 am   BACKBONE|DICT|INTERRES
    61   29   99 1    
    62   30   31 2    
    63   30   32 1    
    64   32   33 1    
    65   32   34 1    
    66   32  100 1    
    67   33  101 1    
    68   33  102 1    
    69   33  103 1    
    70   34   35 am   BACKBONE|DICT|INTERRES
    71   34  104 1    
    72   35   36 2    
    73   37   38 2    
    74   37   39 am   BACKBONE|DICT|INTERRES
    75   39   40 1    
    76   39  105 1    
    77   40   41 1    
    78   40   42 1    
    79   40  106 1    
    80   41  107 1    
    81   41  108 1    
    82   41  109 1    
    83   42   43 2    
    84   42   44 am   BACKBONE|DICT|INTERRES
    85   44   45 1    
    86   44  110 1    
    87   45   46 1    
    88   45   47 1    
    89   45  111 1    
    90   46  112 1    
    91   46  113 1    
    92   46  114 1    
    93   47   48 2    
    94   47   49 am   BACKBONE|DICT|INTERRES
    95   49   50 1    
    96   49  115 1    
    97   50   51 1    
    98   50   52 1    
    99   50  116 1    
   100   51  117 1    
   101   51  118 1    
   102   51  119 1    
   103   52   53 2    
   104   52   54 am   BACKBONE|DICT|INTERRES
   105   54   55 1    
   106   54  120 1    
   107   55   56 1    
   108   55   57 1    
   109   55  121 1    
   110   56  122 1    
   111   56  123 1    
   112   56  124 1    
   113   57   58 2    
   114   57   59 am   BACKBONE|DICT|INTERRES
   115   59   60 1    
   116   59  125 1    
   117   60   61 1    
   118   60   62 1    
   119   60  126 1    
   120   61  127 1    
   121   61  128 1    
   122   61  129 1    
   123   62   63 2    
   124   62   64 am   BACKBONE|DICT|INTERRES
   125   64   65 1    
   126   64  130 1    
   127   65   66 1    
   128   65   69 1    
   129   65  131 1    
   130   66   67 am   BACKBONE|DICT|INTERRES
   131   66   68 2    
   132   67  132 1    
   133   67  133 1    
   134   69   70 1    
   135   69  134 1    
   136   69  135 1    
   137   70   71 1    
   138   71  136 1    
   139   71  137 1    
@<TRIPOS>SUBSTRUCTURE
     1 UNK         1 GROUP             0       ****    0 ROOT    
