@<TRIPOS>MOLECULE
3R137
137   139    1
SMALL
USER_CHARGES


@<TRIPOS>ATOM
      1 CA         26.5222   -6.3014   -4.1509 C.3       0 UNK        -0.2020 
      2 C          26.2074   -6.0443   -2.6854 C.2       0 UNK         0.4855 
      3 O          25.1621   -6.4753   -2.1988 O.2       0 UNK        -0.5197 
      4 N          27.1075   -5.3512   -1.9760 N.am      1 UNK        -0.4892 
      5 CA         26.9627   -4.9906   -0.5592 C.3       1 UNK         0.0835 
      6 C6         28.3261   -4.6283    0.0869 C.3       12 UNK        -0.0855 
      7 S7         29.2066   -3.2754   -0.7711 S.3       12 UNK        -0.2931 
      8 C8         30.5407   -4.1723   -1.6251 C.3       12 UNK         0.0378 
      9 C9         30.9476   -3.4224   -2.8821 C.ar      12 UNK        -0.0802 
     10 C10        31.8666   -2.3715   -2.8116 C.ar      12 UNK        -0.0944 
     11 C11        32.2022   -1.6498   -3.9602 C.ar      12 UNK        -0.0787 
     12 C12        31.5940   -1.9720   -5.1773 C.ar      12 UNK        -0.0862 
     13 C13        30.6862   -3.0302   -5.2673 C.ar      12 UNK        -0.0733 
     14 C14        30.3832   -3.7645   -4.1146 C.ar      12 UNK        -0.0832 
     15 C15        30.0690   -3.3608   -6.6255 C.3       12 UNK         0.0240 
     16 S16        28.3693   -4.0304   -6.5649 S.3       12 UNK        -0.2522 
     17 C17        27.4527   -2.7350   -5.6642 C.3       12 UNK        -0.0967 
     18 CA         26.8388   -1.6745   -6.6101 C.3       5 UNK         0.0660 
     19 N          25.5783   -1.1415   -6.0923 N.am      5 UNK        -0.4015 
     20 C          24.6573   -0.5183   -6.8442 C.2       4 UNK         0.4946 
     21 O          24.7327   -0.4150   -8.0681 O.2       4 UNK        -0.5353 
     22 CA         23.4575    0.1226   -6.1185 C.3       4 UNK         0.0277 
     23 CB         22.2557   -0.8357   -6.1206 C.3       4 UNK        -0.1981 
     24 N          23.7508    0.5262   -4.7411 N.am      4 UNK        -0.4209 
     25 C          24.6750    1.4306   -4.3863 C.2       3 UNK         0.4942 
     26 O          25.3120    2.1029   -5.1953 O.2       3 UNK        -0.5208 
     27 CA         24.9921    1.5665   -2.8857 C.3       3 UNK         0.0250 
     28 CB         24.2631    2.7831   -2.2941 C.3       3 UNK        -0.1990 
     29 N          24.6839    0.3750   -2.0821 N.am      3 UNK        -0.4232 
     30 C          25.1931   -0.8506   -2.2741 C.2       2 UNK         0.4993 
     31 O          25.9564   -1.1447   -3.2002 O.2       2 UNK        -0.5286 
     32 CA         24.7119   -1.9394   -1.3106 C.3       2 UNK         0.0209 
     33 CB         23.3159   -2.4489   -1.7150 C.3       2 UNK        -0.1931 
     34 N          25.6608   -3.0468   -1.3352 N.am      2 UNK        -0.4546 
     35 C          25.9031   -3.8900   -0.3240 C.2       1 UNK         0.5154 
     36 O          25.3233   -3.8330    0.7623 O.2       1 UNK        -0.5181 
     37 C          27.8273   -0.5305   -6.9027 C.2       5 UNK         0.5014 
     38 O          28.4076   -0.4942   -7.9869 O.2       5 UNK        -0.5248 
     39 N          27.9612    0.4161   -5.9606 N.am      6 UNK        -0.4434 
     40 CA         28.8066    1.6091   -6.0961 C.3       6 UNK         0.0363 
     41 CB         28.8857    2.3384   -4.7465 C.3       6 UNK        -0.1936 
     42 C          28.3397    2.5679   -7.2099 C.2       6 UNK         0.5081 
     43 O          29.1543    3.2920   -7.7807 O.2       6 UNK        -0.5248 
     44 N          27.0427    2.5391   -7.5337 N.am      7 UNK        -0.4718 
     45 CA         26.4675    3.2175   -8.6943 C.3       7 UNK         0.0273 
     46 CB         24.9427    3.2975   -8.5131 C.3       7 UNK        -0.1935 
     47 C          26.8170    2.5437  -10.0381 C.2       7 UNK         0.5018 
     48 O          26.6079    3.1715  -11.0776 O.2       7 UNK        -0.5186 
     49 N          27.3045    1.2937  -10.0121 N.am      8 UNK        -0.4240 
     50 CA         27.5371    0.4657  -11.1947 C.3       8 UNK         0.0235 
     51 CB         26.7717   -0.8600  -11.0389 C.3       8 UNK        -0.2000 
     52 C          29.0239    0.1896  -11.4641 C.2       8 UNK         0.4941 
     53 O          29.4189    0.2355  -12.6307 O.2       8 UNK        -0.5273 
     54 N          29.8172   -0.1313  -10.4306 N.am      9 UNK        -0.4262 
     55 CA         31.1779   -0.6528  -10.5955 C.3       9 UNK         0.0264 
     56 CB         31.1055   -2.1854  -10.7457 C.3       9 UNK        -0.1955 
     57 C          32.1056   -0.2752   -9.4333 C.2       9 UNK         0.5031 
     58 O          31.6370    0.0752   -8.3480 O.2       9 UNK        -0.5390 
     59 N          33.4169   -0.4069   -9.6923 N.am      10 UNK        -0.4204 
     60 CA         34.5510   -0.2315   -8.7766 C.3       10 UNK         0.0237 
     61 CB         34.6377   -1.4178   -7.7904 C.3       10 UNK        -0.1985 
     62 C          34.5570    1.1515   -8.1015 C.2       10 UNK         0.4970 
     63 O          34.9137    2.1326   -8.7552 O.2       10 UNK        -0.4914 
     64 N          34.1622    1.2045   -6.8241 N.am      11 UNK        -0.4285 
     65 CA         33.9642    2.4369   -6.0464 C.3       11 UNK         0.1007 
     66 C          32.7787    3.3251   -6.5282 C.2       11 UNK         0.5703 
     67 N          31.8915    2.8233   -7.3758 N.am      11 UNK        -0.7361 
     68 O          32.6691    4.4800   -6.1228 O.2       11 UNK        -0.4986 
     69 C69        33.8803    2.1343   -4.5246 C.3       12 UNK        -0.0947 
     70 S70        32.4477    1.0972   -4.0610 S.3       12 UNK        -0.2240 
     71 C71        33.2317   -0.5333   -3.8986 C.3       12 UNK         0.0194 
     72 H72        25.8555   -5.7204   -4.7874 H         1 UNK         0.0906 
     73 H73        27.5495   -6.0372   -4.3989 H         1 UNK         0.0906 
     74 H74        26.3828   -7.3563   -4.3858 H         1 UNK         0.0906 
     75 H75        27.9430   -5.0030   -2.4219 H         1 UNK         0.3140 
     76 H76        26.5887   -5.8751   -0.0379 H         1 UNK         0.1085 
     77 H77        28.1885   -4.3407    1.1312 H         1 UNK         0.0836 
     78 H78        28.9627   -5.5139    0.1182 H         1 UNK         0.0836 
     79 H79        31.3932   -4.2833   -0.9532 H         1 UNK         0.0731 
     80 H80        30.2170   -5.1819   -1.8827 H         1 UNK         0.0731 
     81 H81        32.3122   -2.1119   -1.8609 H         1 UNK         0.1312 
     82 H82        31.8244   -1.3917   -6.0595 H         1 UNK         0.1406 
     83 H83        29.6889   -4.5901   -4.1712 H         1 UNK         0.1631 
     84 H84        30.7075   -4.0919   -7.1224 H         1 UNK         0.0717 
     85 H85        30.0698   -2.4765   -7.2641 H         1 UNK         0.0717 
     86 H86        26.6561   -3.2541   -5.1292 H         1 UNK         0.0934 
     87 H87        28.0675   -2.2842   -4.8827 H         1 UNK         0.0934 
     88 H88        26.6094   -2.1580   -7.5629 H         1 UNK         0.0739 
     89 H89        25.4690   -1.1606   -5.0823 H         1 UNK         0.3093 
     90 H90        23.1825    1.0213   -6.6746 H         1 UNK         0.0818 
     91 H91        21.3712   -0.3654   -5.6907 H         1 UNK         0.0819 
     92 H92        21.9983   -1.1351   -7.1378 H         1 UNK         0.0819 
     93 H93        22.4623   -1.7458   -5.5558 H         1 UNK         0.0819 
     94 H94        23.2659    0.0306   -4.0079 H         1 UNK         0.3041 
     95 H95        26.0670    1.7405   -2.8039 H         1 UNK         0.0784 
     96 H96        24.4952    3.6888   -2.8567 H         1 UNK         0.0793 
     97 H97        23.1800    2.6553   -2.3152 H         1 UNK         0.0793 
     98 H98        24.5616    2.9624   -1.2610 H         1 UNK         0.0793 
     99 H99        24.0480    0.5157   -1.3096 H         1 UNK         0.3024 
    100 H100       24.6758   -1.5160   -0.3039 H         1 UNK         0.1171 
    101 H101       22.5793   -1.6447   -1.6992 H         1 UNK         0.0786 
    102 H102       22.9626   -3.2202   -1.0302 H         1 UNK         0.0786 
    103 H103       23.3185   -2.8735   -2.7199 H         1 UNK         0.0786 
    104 H104       26.2232   -3.1040   -2.1745 H         1 UNK         0.2977 
    105 H105       27.4292    0.3310   -5.1064 H         1 UNK         0.3127 
    106 H106       29.8098    1.2658   -6.3575 H         1 UNK         0.0770 
    107 H107       27.9132    2.7204   -4.4347 H         1 UNK         0.0814 
    108 H108       29.5673    3.1882   -4.8081 H         1 UNK         0.0814 
    109 H109       29.2612    1.6818   -3.9614 H         1 UNK         0.0814 
    110 H110       26.4094    2.0124   -6.9416 H         1 UNK         0.2983 
    111 H111       26.8616    4.2356   -8.7282 H         1 UNK         0.0947 
    112 H112       24.4816    3.8619   -9.3247 H         1 UNK         0.0806 
    113 H113       24.6781    3.7957   -7.5800 H         1 UNK         0.0806 
    114 H114       24.4869    2.3072   -8.5056 H         1 UNK         0.0806 
    115 H115       27.4968    0.8558   -9.1171 H         1 UNK         0.3000 
    116 H116       27.1406    0.9636  -12.0823 H         1 UNK         0.0850 
    117 H117       26.8981   -1.4908  -11.9197 H         1 UNK         0.0810 
    118 H118       25.7026   -0.6863  -10.9137 H         1 UNK         0.0810 
    119 H119       27.1171   -1.4308  -10.1763 H         1 UNK         0.0810 
    120 H120       29.4475   -0.1465   -9.4798 H         1 UNK         0.3040 
    121 H121       31.6197   -0.2285  -11.4997 H         1 UNK         0.0766 
    122 H122       32.0961   -2.6246  -10.8699 H         1 UNK         0.0812 
    123 H123       30.5177   -2.4717  -11.6180 H         1 UNK         0.0812 
    124 H124       30.6497   -2.6499   -9.8701 H         1 UNK         0.0812 
    125 H125       33.6763   -0.6674  -10.6338 H         1 UNK         0.3205 
    126 H126       35.4507   -0.2627   -9.3935 H         1 UNK         0.0754 
    127 H127       35.4648   -1.2931   -7.0899 H         1 UNK         0.0769 
    128 H128       34.8125   -2.3521   -8.3242 H         1 UNK         0.0769 
    129 H129       33.7252   -1.5442   -7.2121 H         1 UNK         0.0769 
    130 H130       33.8273    0.3578   -6.3932 H         1 UNK         0.2981 
    131 H131       34.8586    3.0441   -6.1974 H         1 UNK         0.0541 
    132 H132       31.9546    1.8554   -7.6755 H         1 UNK         0.3459 
    133 H133       31.0716    3.3599   -7.6355 H         1 UNK         0.3459 
    134 H134       33.8201    3.0651   -3.9578 H         1 UNK         0.0612 
    135 H135       34.7999    1.6516   -4.1903 H         1 UNK         0.0612 
    136 H136       33.9613   -0.6807   -4.6951 H         1 UNK         0.0624 
    137 H137       33.7892   -0.5671   -2.9613 H         1 UNK         0.0624 
@<TRIPOS>BOND
     1    1    2 1    
     2    1   72 1    
     3    1   73 1    
     4    1   74 1    
     5    2    3 2    
     6    2    4 am   BACKBONE|DICT|INTERRES
     7    4    5 1    
     8    4   75 1    
     9    5    6 1    
    10    5   35 1    
    11    5   76 1    
    12    6    7 1    
    13    6   77 1    
    14    6   78 1    
    15    7    8 1    
    16    8    9 1    
    17    8   79 1    
    18    8   80 1    
    19    9   10 ar   
    20    9   14 ar   
    21   10   11 ar   
    22   10   81 1    
    23   11   12 ar   
    24   11   71 1    
    25   12   13 ar   
    26   12   82 1    
    27   13   14 ar   
    28   13   15 1    
    29   14   83 1    
    30   15   16 1    
    31   15   84 1    
    32   15   85 1    
    33   16   17 1    
    34   17   18 1    
    35   17   86 1    
    36   17   87 1    
    37   18   19 1    
    38   18   37 1    
    39   18   88 1    
    40   19   20 am   BACKBONE|DICT|INTERRES
    41   19   89 1    
    42   20   21 2    
    43   20   22 1    
    44   22   23 1    
    45   22   24 1    
    46   22   90 1    
    47   23   91 1    
    48   23   92 1    
    49   23   93 1    
    50   24   25 am   BACKBONE|DICT|INTERRES
    51   24   94 1    
    52   25   26 2    
    53   25   27 1    
    54   27   28 1    
    55   27   29 1    
    56   27   95 1    
    57   28   96 1    
    58   28   97 1    
    59   28   98 1    
    60   29   30 am   BACKBONE|DICT|INTERRES
    61   29   99 1    
    62   30   31 2    
    63   30   32 1    
    64   32   33 1    
    65   32   34 1    
    66   32  100 1    
    67   33  101 1    
    68   33  102 1    
    69   33  103 1    
    70   34   35 am   BACKBONE|DICT|INTERRES
    71   34  104 1    
    72   35   36 2    
    73   37   38 2    
    74   37   39 am   BACKBONE|DICT|INTERRES
    75   39   40 1    
    76   39  105 1    
    77   40   41 1    
    78   40   42 1    
    79   40  106 1    
    80   41  107 1    
    81   41  108 1    
    82   41  109 1    
    83   42   43 2    
    84   42   44 am   BACKBONE|DICT|INTERRES
    85   44   45 1    
    86   44  110 1    
    87   45   46 1    
    88   45   47 1    
    89   45  111 1    
    90   46  112 1    
    91   46  113 1    
    92   46  114 1    
    93   47   48 2    
    94   47   49 am   BACKBONE|DICT|INTERRES
    95   49   50 1    
    96   49  115 1    
    97   50   51 1    
    98   50   52 1    
    99   50  116 1    
   100   51  117 1    
   101   51  118 1    
   102   51  119 1    
   103   52   53 2    
   104   52   54 am   BACKBONE|DICT|INTERRES
   105   54   55 1    
   106   54  120 1    
   107   55   56 1    
   108   55   57 1    
   109   55  121 1    
   110   56  122 1    
   111   56  123 1    
   112   56  124 1    
   113   57   58 2    
   114   57   59 am   BACKBONE|DICT|INTERRES
   115   59   60 1    
   116   59  125 1    
   117   60   61 1    
   118   60   62 1    
   119   60  126 1    
   120   61  127 1    
   121   61  128 1    
   122   61  129 1    
   123   62   63 2    
   124   62   64 am   BACKBONE|DICT|INTERRES
   125   64   65 1    
   126   64  130 1    
   127   65   66 1    
   128   65   69 1    
   129   65  131 1    
   130   66   67 am   BACKBONE|DICT|INTERRES
   131   66   68 2    
   132   67  132 1    
   133   67  133 1    
   134   69   70 1    
   135   69  134 1    
   136   69  135 1    
   137   70   71 1    
   138   71  136 1    
   139   71  137 1    
@<TRIPOS>SUBSTRUCTURE
     1 UNK         1 GROUP             0       ****    0 ROOT    
