@<TRIPOS>MOLECULE
3R137
137   139    1
SMALL
USER_CHARGES


@<TRIPOS>ATOM
      1 CA         26.0956   -6.1437   -4.8385 C.3       0 UNK        -0.2020 
      2 C          26.0304   -5.3460   -3.5459 C.2       0 UNK         0.4855 
      3 O          24.9499   -4.9116   -3.1466 O.2       0 UNK        -0.5197 
      4 N          27.1765   -5.1363   -2.8874 N.am      1 UNK        -0.4892 
      5 CA         27.3065   -4.3382   -1.6645 C.3       1 UNK         0.0835 
      6 C6         28.6809   -4.5040   -0.9570 C.3       12 UNK        -0.0855 
      7 S7         30.1075   -4.8150   -2.0583 S.3       12 UNK        -0.2931 
      8 C8         31.3067   -3.5519   -1.5277 C.3       12 UNK         0.0378 
      9 C9         31.1511   -2.2537   -2.3048 C.ar      12 UNK        -0.0802 
     10 C10        31.4018   -2.2391   -3.6785 C.ar      12 UNK        -0.0944 
     11 C11        31.3096   -1.0516   -4.4143 C.ar      12 UNK        -0.0787 
     12 C12        30.9913    0.1323   -3.7421 C.ar      12 UNK        -0.0862 
     13 C13        30.7144    0.1339   -2.3692 C.ar      12 UNK        -0.0733 
     14 C14        30.7970   -1.0674   -1.6572 C.ar      12 UNK        -0.0832 
     15 C15        30.3453    1.4195   -1.6275 C.3       12 UNK         0.0240 
     16 S16        29.2728    2.5687   -2.5622 S.3       12 UNK        -0.2522 
     17 C17        27.8712    1.4991   -3.0263 C.3       12 UNK        -0.0967 
     18 CA         27.7571    1.3479   -4.5677 C.3       5 UNK         0.0660 
     19 N          27.4320   -0.0222   -4.9638 N.am      5 UNK        -0.4015 
     20 C          27.4312   -0.4824   -6.2230 C.2       4 UNK         0.4946 
     21 O          27.8031    0.1697   -7.2007 O.2       4 UNK        -0.5353 
     22 CA         26.8626   -1.8965   -6.4250 C.3       4 UNK         0.0277 
     23 CB         27.9492   -2.9628   -6.2178 C.3       4 UNK        -0.1981 
     24 N          25.7265   -2.1549   -5.5336 N.am      4 UNK        -0.4209 
     25 C          24.5300   -1.5591   -5.6559 C.2       3 UNK         0.4942 
     26 O          24.2390   -0.7972   -6.5760 O.2       3 UNK        -0.5208 
     27 CA         23.5017   -1.8063   -4.5407 C.3       3 UNK         0.0250 
     28 CB         22.6833   -3.0759   -4.8225 C.3       3 UNK        -0.1990 
     29 N          24.1226   -1.8782   -3.2143 N.am      3 UNK        -0.4232 
     30 C          24.6577   -0.8154   -2.5911 C.2       2 UNK         0.4993 
     31 O          24.6451    0.3208   -3.0607 O.2       2 UNK        -0.5286 
     32 CA         25.3663   -1.0427   -1.2441 C.3       2 UNK         0.0209 
     33 CB         24.3919   -0.8040   -0.0801 C.3       2 UNK        -0.1931 
     34 N          25.9744   -2.3674   -1.1073 N.am      2 UNK        -0.4546 
     35 C          26.9195   -2.8664   -1.9159 C.2       1 UNK         0.5154 
     36 O          27.4164   -2.2369   -2.8536 O.2       1 UNK        -0.5181 
     37 C          26.7770    2.3699   -5.1816 C.2       5 UNK         0.5014 
     38 O          27.2199    3.3293   -5.8132 O.2       5 UNK        -0.5248 
     39 N          25.4664    2.1246   -5.0281 N.am      6 UNK        -0.4434 
     40 CA         24.3810    2.9380   -5.5878 C.3       6 UNK         0.0363 
     41 CB         23.0311    2.4313   -5.0566 C.3       6 UNK        -0.1936 
     42 C          24.3726    2.9775   -7.1258 C.2       6 UNK         0.5081 
     43 O          24.0779    4.0253   -7.7009 O.2       6 UNK        -0.5248 
     44 N          24.7283    1.8541   -7.7643 N.am      7 UNK        -0.4718 
     45 CA         24.9244    1.7394   -9.2132 C.3       7 UNK         0.0273 
     46 CB         24.9439    0.2511   -9.5996 C.3       7 UNK        -0.1935 
     47 C          26.1980    2.4404   -9.7271 C.2       7 UNK         0.5018 
     48 O          26.3434    2.5820  -10.9421 O.2       7 UNK        -0.5186 
     49 N          27.0891    2.8521   -8.8116 N.am      8 UNK        -0.4240 
     50 CA         28.3870    3.4908   -9.0454 C.3       8 UNK         0.0235 
     51 CB         28.2116    4.8874   -9.6800 C.3       8 UNK        -0.2000 
     52 C          29.3630    2.5856   -9.8191 C.2       8 UNK         0.4941 
     53 O          30.0693    3.0614  -10.7116 O.2       8 UNK        -0.5273 
     54 N          29.3889    1.2935   -9.4628 N.am      9 UNK        -0.4262 
     55 CA         30.3451    0.3180   -9.9885 C.3       9 UNK         0.0264 
     56 CB         29.8514   -1.0963   -9.6447 C.3       9 UNK        -0.1955 
     57 C          31.7587    0.5617   -9.4279 C.2       9 UNK         0.5031 
     58 O          31.9005    1.1257   -8.3399 O.2       9 UNK        -0.5390 
     59 N          32.7807    0.1249  -10.1758 N.am      10 UNK        -0.4204 
     60 CA         34.1879    0.2276   -9.7745 C.3       10 UNK         0.0237 
     61 CB         35.0938    0.0434  -11.0037 C.3       10 UNK        -0.1985 
     62 C          34.5586   -0.7742   -8.6679 C.2       10 UNK         0.4970 
     63 O          35.2584   -0.4015   -7.7259 O.2       10 UNK        -0.4914 
     64 N          34.0780   -2.0175   -8.8116 N.am      11 UNK        -0.4285 
     65 CA         34.2538   -3.1413   -7.8715 C.3       11 UNK         0.1007 
     66 C          35.7261   -3.6211   -7.6791 C.2       11 UNK         0.5703 
     67 N          36.6447   -3.3073   -8.5854 N.am      11 UNK        -0.7361 
     68 O          36.0393   -4.3179   -6.7163 O.2       11 UNK        -0.4986 
     69 C69        33.5031   -2.9298   -6.5246 C.3       12 UNK        -0.0947 
     70 S70        31.7274   -2.5934   -6.7768 S.3       12 UNK        -0.2240 
     71 C71        31.5305   -0.9878   -5.9270 C.3       12 UNK         0.0194 
     72 H72        27.1206   -6.3895   -5.1132 H         1 UNK         0.0906 
     73 H73        25.5388   -7.0738   -4.7323 H         1 UNK         0.0906 
     74 H74        25.6521   -5.5737   -5.6546 H         1 UNK         0.0906 
     75 H75        28.0524   -5.4768   -3.2604 H         1 UNK         0.3140 
     76 H76        26.5620   -4.7413   -0.9740 H         1 UNK         0.1085 
     77 H77        28.8892   -3.6562   -0.3012 H         1 UNK         0.0836 
     78 H78        28.6247   -5.3650   -0.2890 H         1 UNK         0.0836 
     79 H79        32.3121   -3.9384   -1.7005 H         1 UNK         0.0731 
     80 H80        31.2303   -3.3872   -0.4519 H         1 UNK         0.0731 
     81 H81        31.6643   -3.1694   -4.1600 H         1 UNK         0.1312 
     82 H82        30.9428    1.0574   -4.2991 H         1 UNK         0.1406 
     83 H83        30.6009   -1.0768   -0.5937 H         1 UNK         0.1631 
     84 H84        31.2646    1.9418   -1.3602 H         1 UNK         0.0717 
     85 H85        29.8423    1.1819   -0.6887 H         1 UNK         0.0717 
     86 H86        28.0138    0.5249   -2.5568 H         1 UNK         0.0934 
     87 H87        26.9579    1.8966   -2.5786 H         1 UNK         0.0934 
     88 H88        28.7319    1.5482   -5.0167 H         1 UNK         0.0739 
     89 H89        27.1856   -0.6675   -4.2215 H         1 UNK         0.3093 
     90 H90        26.5089   -1.9695   -7.4555 H         1 UNK         0.0818 
     91 H91        27.5579   -3.9673   -6.3739 H         1 UNK         0.0819 
     92 H92        28.7620   -2.8231   -6.9301 H         1 UNK         0.0819 
     93 H93        28.3849   -2.9199   -5.2187 H         1 UNK         0.0819 
     94 H94        25.9046   -2.7218   -4.7161 H         1 UNK         0.3041 
     95 H95        22.8095   -0.9616   -4.5373 H         1 UNK         0.0784 
     96 H96        22.1272   -2.9759   -5.7556 H         1 UNK         0.0793 
     97 H97        23.3154   -3.9582   -4.9196 H         1 UNK         0.0793 
     98 H98        21.9574   -3.2663   -4.0320 H         1 UNK         0.0793 
     99 H99        24.2075   -2.7970   -2.7955 H         1 UNK         0.3024 
    100 H100       26.1677   -0.3050   -1.1726 H         1 UNK         0.1171 
    101 H101       23.9428    0.1883   -0.1452 H         1 UNK         0.0786 
    102 H102       24.9000   -0.8638    0.8826 H         1 UNK         0.0786 
    103 H103       23.5780   -1.5302   -0.0779 H         1 UNK         0.0786 
    104 H104       25.6037   -2.9539   -0.3730 H         1 UNK         0.2977 
    105 H105       25.1825    1.3454   -4.4341 H         1 UNK         0.3127 
    106 H106       24.5244    3.9611   -5.2341 H         1 UNK         0.0770 
    107 H107       22.8396    1.4026   -5.3632 H         1 UNK         0.0814 
    108 H108       22.2092    3.0426   -5.4315 H         1 UNK         0.0814 
    109 H109       22.9930    2.4688   -3.9678 H         1 UNK         0.0814 
    110 H110       24.8692    1.0077   -7.2203 H         1 UNK         0.2983 
    111 H111       24.0743    2.2114   -9.7104 H         1 UNK         0.0947 
    112 H112       25.0442    0.1263  -10.6786 H         1 UNK         0.0806 
    113 H113       24.0226   -0.2494   -9.3010 H         1 UNK         0.0806 
    114 H114       25.7779   -0.2729   -9.1320 H         1 UNK         0.0806 
    115 H115       26.8733    2.6770   -7.8367 H         1 UNK         0.3000 
    116 H116       28.8328    3.6340   -8.0599 H         1 UNK         0.0850 
    117 H117       29.1645    5.4156   -9.7293 H         1 UNK         0.0810 
    118 H118       27.5297    5.5047   -9.0950 H         1 UNK         0.0810 
    119 H119       27.8220    4.8261  -10.6965 H         1 UNK         0.0810 
    120 H120       28.8006    0.9830   -8.6928 H         1 UNK         0.3040 
    121 H121       30.3792    0.4205  -11.0752 H         1 UNK         0.0766 
    122 H122       28.8771   -1.2947  -10.0915 H         1 UNK         0.0812 
    123 H123       29.7549   -1.2337   -8.5683 H         1 UNK         0.0812 
    124 H124       30.5395   -1.8590  -10.0111 H         1 UNK         0.0812 
    125 H125       32.5860   -0.3137  -11.0648 H         1 UNK         0.3205 
    126 H126       34.3585    1.2322   -9.3806 H         1 UNK         0.0754 
    127 H127       36.1460    0.1298  -10.7285 H         1 UNK         0.0769 
    128 H128       34.8959    0.8051  -11.7582 H         1 UNK         0.0769 
    129 H129       34.9577   -0.9332  -11.4699 H         1 UNK         0.0769 
    130 H130       33.5239   -2.2238   -9.6284 H         1 UNK         0.2981 
    131 H131       33.7725   -3.9878   -8.3622 H         1 UNK         0.0541 
    132 H132       36.4028   -2.7478   -9.3868 H         1 UNK         0.3459 
    133 H133       37.5911   -3.6304   -8.4606 H         1 UNK         0.3459 
    134 H134       33.5733   -3.8224   -5.9010 H         1 UNK         0.0612 
    135 H135       33.9622   -2.1235   -5.9509 H         1 UNK         0.0612 
    136 H136       32.3961   -0.3591   -6.1387 H         1 UNK         0.0624 
    137 H137       30.6711   -0.4859   -6.3738 H         1 UNK         0.0624 
@<TRIPOS>BOND
     1    1    2 1    
     2    1   72 1    
     3    1   73 1    
     4    1   74 1    
     5    2    3 2    
     6    2    4 am   BACKBONE|DICT|INTERRES
     7    4    5 1    
     8    4   75 1    
     9    5    6 1    
    10    5   35 1    
    11    5   76 1    
    12    6    7 1    
    13    6   77 1    
    14    6   78 1    
    15    7    8 1    
    16    8    9 1    
    17    8   79 1    
    18    8   80 1    
    19    9   10 ar   
    20    9   14 ar   
    21   10   11 ar   
    22   10   81 1    
    23   11   12 ar   
    24   11   71 1    
    25   12   13 ar   
    26   12   82 1    
    27   13   14 ar   
    28   13   15 1    
    29   14   83 1    
    30   15   16 1    
    31   15   84 1    
    32   15   85 1    
    33   16   17 1    
    34   17   18 1    
    35   17   86 1    
    36   17   87 1    
    37   18   19 1    
    38   18   37 1    
    39   18   88 1    
    40   19   20 am   BACKBONE|DICT|INTERRES
    41   19   89 1    
    42   20   21 2    
    43   20   22 1    
    44   22   23 1    
    45   22   24 1    
    46   22   90 1    
    47   23   91 1    
    48   23   92 1    
    49   23   93 1    
    50   24   25 am   BACKBONE|DICT|INTERRES
    51   24   94 1    
    52   25   26 2    
    53   25   27 1    
    54   27   28 1    
    55   27   29 1    
    56   27   95 1    
    57   28   96 1    
    58   28   97 1    
    59   28   98 1    
    60   29   30 am   BACKBONE|DICT|INTERRES
    61   29   99 1    
    62   30   31 2    
    63   30   32 1    
    64   32   33 1    
    65   32   34 1    
    66   32  100 1    
    67   33  101 1    
    68   33  102 1    
    69   33  103 1    
    70   34   35 am   BACKBONE|DICT|INTERRES
    71   34  104 1    
    72   35   36 2    
    73   37   38 2    
    74   37   39 am   BACKBONE|DICT|INTERRES
    75   39   40 1    
    76   39  105 1    
    77   40   41 1    
    78   40   42 1    
    79   40  106 1    
    80   41  107 1    
    81   41  108 1    
    82   41  109 1    
    83   42   43 2    
    84   42   44 am   BACKBONE|DICT|INTERRES
    85   44   45 1    
    86   44  110 1    
    87   45   46 1    
    88   45   47 1    
    89   45  111 1    
    90   46  112 1    
    91   46  113 1    
    92   46  114 1    
    93   47   48 2    
    94   47   49 am   BACKBONE|DICT|INTERRES
    95   49   50 1    
    96   49  115 1    
    97   50   51 1    
    98   50   52 1    
    99   50  116 1    
   100   51  117 1    
   101   51  118 1    
   102   51  119 1    
   103   52   53 2    
   104   52   54 am   BACKBONE|DICT|INTERRES
   105   54   55 1    
   106   54  120 1    
   107   55   56 1    
   108   55   57 1    
   109   55  121 1    
   110   56  122 1    
   111   56  123 1    
   112   56  124 1    
   113   57   58 2    
   114   57   59 am   BACKBONE|DICT|INTERRES
   115   59   60 1    
   116   59  125 1    
   117   60   61 1    
   118   60   62 1    
   119   60  126 1    
   120   61  127 1    
   121   61  128 1    
   122   61  129 1    
   123   62   63 2    
   124   62   64 am   BACKBONE|DICT|INTERRES
   125   64   65 1    
   126   64  130 1    
   127   65   66 1    
   128   65   69 1    
   129   65  131 1    
   130   66   67 am   BACKBONE|DICT|INTERRES
   131   66   68 2    
   132   67  132 1    
   133   67  133 1    
   134   69   70 1    
   135   69  134 1    
   136   69  135 1    
   137   70   71 1    
   138   71  136 1    
   139   71  137 1    
@<TRIPOS>SUBSTRUCTURE
     1 UNK         1 GROUP             0       ****    0 ROOT    
