@<TRIPOS>MOLECULE
3R137
137   139    1
SMALL
USER_CHARGES


@<TRIPOS>ATOM
      1 CA         22.8668   -5.5665   -2.5532 C.3       0 UNK        -0.2020 
      2 C          23.9991   -4.9733   -1.7289 C.2       0 UNK         0.4855 
      3 O          23.7652   -4.5010   -0.6160 O.2       0 UNK        -0.5197 
      4 N          25.2254   -4.9812   -2.2681 N.am      1 UNK        -0.4892 
      5 CA         26.4355   -4.4347   -1.6427 C.3       1 UNK         0.0835 
      6 C6         27.7054   -5.0914   -2.2504 C.3       12 UNK        -0.0855 
      7 S7         29.1385   -5.0253   -1.1261 S.3       12 UNK        -0.2931 
      8 C8         30.5349   -5.0219   -2.3063 C.3       12 UNK         0.0378 
      9 C9         30.6959   -3.7013   -3.0539 C.ar      12 UNK        -0.0802 
     10 C10        30.8849   -3.6891   -4.4403 C.ar      12 UNK        -0.0944 
     11 C11        31.0425   -2.4794   -5.1266 C.ar      12 UNK        -0.0787 
     12 C12        31.0008   -1.2744   -4.4194 C.ar      12 UNK        -0.0862 
     13 C13        30.8195   -1.2738   -3.0344 C.ar      12 UNK        -0.0733 
     14 C14        30.6844   -2.4891   -2.3586 C.ar      12 UNK        -0.0832 
     15 C15        30.7605    0.0282   -2.2526 C.3       12 UNK         0.0240 
     16 S16        29.0987    0.2838   -1.5579 S.3       12 UNK        -0.2522 
     17 C17        28.3973    1.5939   -2.6093 C.3       12 UNK        -0.0967 
     18 CA         28.3185    1.2979   -4.1311 C.3       5 UNK         0.0660 
     19 N          27.7002    0.0113   -4.4798 N.am      5 UNK        -0.4015 
     20 C          27.6517   -0.4792   -5.7311 C.2       4 UNK         0.4946 
     21 O          28.2343    0.0309   -6.6847 O.2       4 UNK        -0.5353 
     22 CA         26.7601   -1.7013   -5.9960 C.3       4 UNK         0.0277 
     23 CB         27.5466   -3.0105   -5.8423 C.3       4 UNK        -0.1981 
     24 N          25.5802   -1.7095   -5.1321 N.am      4 UNK        -0.4209 
     25 C          24.5187   -0.9086   -5.3096 C.2       3 UNK         0.4942 
     26 O          24.4076   -0.1232   -6.2500 O.2       3 UNK        -0.5208 
     27 CA         23.4129   -0.9598   -4.2401 C.3       3 UNK         0.0250 
     28 CB         22.4001   -2.0689   -4.5658 C.3       3 UNK        -0.1990 
     29 N          23.9382   -1.1610   -2.8886 N.am      3 UNK        -0.4232 
     30 C          24.7448   -0.3025   -2.2484 C.2       2 UNK         0.4993 
     31 O          25.0575    0.8019   -2.6940 O.2       2 UNK        -0.5286 
     32 CA         25.3571   -0.7919   -0.9232 C.3       2 UNK         0.0209 
     33 CB         24.4580   -0.4075    0.2618 C.3       2 UNK        -0.1931 
     34 N          25.6109   -2.2396   -0.8987 N.am      2 UNK        -0.4546 
     35 C          26.4210   -2.8930   -1.7450 C.2       1 UNK         0.5154 
     36 O          27.0440   -2.3255   -2.6416 O.2       1 UNK        -0.5181 
     37 C          27.6011    2.4649   -4.8380 C.2       5 UNK         0.5014 
     38 O          28.2646    3.3002   -5.4527 O.2       5 UNK        -0.5248 
     39 N          26.2613    2.4865   -4.7536 N.am      6 UNK        -0.4434 
     40 CA         25.3965    3.4897   -5.3822 C.3       6 UNK         0.0363 
     41 CB         23.9453    3.2774   -4.9231 C.3       6 UNK        -0.1936 
     42 C          25.4874    3.4966   -6.9185 C.2       6 UNK         0.5081 
     43 O          25.5220    4.5713   -7.5180 O.2       6 UNK        -0.5248 
     44 N          25.5527    2.3045   -7.5256 N.am      7 UNK        -0.4718 
     45 CA         25.7372    2.1126   -8.9676 C.3       7 UNK         0.0273 
     46 CB         25.2571    0.7003   -9.3411 C.3       7 UNK        -0.1935 
     47 C          27.1884    2.3184   -9.4437 C.2       7 UNK         0.5018 
     48 O          27.4204    2.3164  -10.6539 O.2       7 UNK        -0.5186 
     49 N          28.1420    2.4315   -8.5077 N.am      8 UNK        -0.4240 
     50 CA         29.6037    2.4670   -8.6615 C.3       8 UNK         0.0235 
     51 CB         30.0706    3.6536   -9.5265 C.3       8 UNK        -0.2000 
     52 C          30.2075    1.1378   -9.1495 C.2       8 UNK         0.4941 
     53 O          31.1987    0.6877   -8.5742 O.2       8 UNK        -0.5273 
     54 N          29.6116    0.5478  -10.1980 N.am      9 UNK        -0.4262 
     55 CA         29.8402   -0.7947  -10.7540 C.3       9 UNK         0.0264 
     56 CB         29.1057   -1.8389   -9.8887 C.3       9 UNK        -0.1955 
     57 C          31.3192   -1.1569  -11.0118 C.2       9 UNK         0.5031 
     58 O          31.7044   -2.3173  -10.8595 O.2       9 UNK        -0.5390 
     59 N          32.1146   -0.1458  -11.3929 N.am      10 UNK        -0.4204 
     60 CA         33.5637   -0.1759  -11.6292 C.3       10 UNK         0.0237 
     61 CB         33.9141   -1.1046  -12.8124 C.3       10 UNK        -0.1985 
     62 C          34.4211   -0.4681  -10.3769 C.2       10 UNK         0.4970 
     63 O          35.6101   -0.7549  -10.5301 O.2       10 UNK        -0.4914 
     64 N          33.8453   -0.3594   -9.1704 N.am      11 UNK        -0.4285 
     65 CA         34.5690   -0.4995   -7.8940 C.3       11 UNK         0.1007 
     66 C          35.3252    0.7885   -7.4568 C.2       11 UNK         0.5703 
     67 N          35.1194    1.9354   -8.0947 N.am      11 UNK        -0.7361 
     68 O          36.1279    0.7430   -6.5277 O.2       11 UNK        -0.4986 
     69 C69        33.6529   -1.0182   -6.7550 C.3       12 UNK        -0.0947 
     70 S70        32.9776   -2.6767   -7.1031 S.3       12 UNK        -0.2240 
     71 C71        31.2325   -2.4718   -6.6360 C.3       12 UNK         0.0194 
     72 H72        23.1991   -5.8726   -3.5450 H         1 UNK         0.0906 
     73 H73        22.4551   -6.4399   -2.0482 H         1 UNK         0.0906 
     74 H74        22.0670   -4.8363   -2.6744 H         1 UNK         0.0906 
     75 H75        25.3532   -5.3724   -3.1910 H         1 UNK         0.3140 
     76 H76        26.4048   -4.6921   -0.5811 H         1 UNK         0.1085 
     77 H77        27.5201   -6.1495   -2.4427 H         1 UNK         0.0836 
     78 H78        27.9612   -4.6606   -3.2189 H         1 UNK         0.0836 
     79 H79        30.4090   -5.8514   -3.0040 H         1 UNK         0.0731 
     80 H80        31.4558   -5.2198   -1.7563 H         1 UNK         0.0731 
     81 H81        30.9100   -4.6203   -4.9897 H         1 UNK         0.1312 
     82 H82        31.1025   -0.3387   -4.9509 H         1 UNK         0.1406 
     83 H83        30.5421   -2.4872   -1.2865 H         1 UNK         0.1631 
     84 H84        31.0551    0.8791   -2.8680 H         1 UNK         0.0717 
     85 H85        31.4790   -0.0179   -1.4331 H         1 UNK         0.0717 
     86 H86        27.4075    1.8154   -2.2074 H         1 UNK         0.0934 
     87 H87        28.9863    2.4977   -2.4400 H         1 UNK         0.0934 
     88 H88        29.3373    1.2719   -4.5207 H         1 UNK         0.0739 
     89 H89        27.2830   -0.5226   -3.7255 H         1 UNK         0.3093 
     90 H90        26.4175   -1.6447   -7.0314 H         1 UNK         0.0818 
     91 H91        28.2971   -3.0957   -6.6276 H         1 UNK         0.0819 
     92 H92        28.0729   -3.0554   -4.8900 H         1 UNK         0.0819 
     93 H93        26.8988   -3.8836   -5.9172 H         1 UNK         0.0819 
     94 H94        25.6519   -2.2554   -4.2837 H         1 UNK         0.3041 
     95 H95        22.8911   -0.0006   -4.2564 H         1 UNK         0.0784 
     96 H96        21.9679   -1.9209   -5.5566 H         1 UNK         0.0793 
     97 H97        22.8628   -3.0566   -4.5574 H         1 UNK         0.0793 
     98 H98        21.5754   -2.0767   -3.8528 H         1 UNK         0.0793 
     99 H99        23.7254   -2.0378   -2.4363 H         1 UNK         0.3024 
    100 H100       26.3162   -0.2853   -0.8046 H         1 UNK         0.1171 
    101 H101       24.9262   -0.6618    1.2129 H         1 UNK         0.0786 
    102 H102       24.2668    0.6666    0.2737 H         1 UNK         0.0786 
    103 H103       23.4916   -0.9115    0.2171 H         1 UNK         0.0786 
    104 H104       25.0511   -2.7958   -0.2623 H         1 UNK         0.2977 
    105 H105       25.8016    1.7858   -4.1757 H         1 UNK         0.3127 
    106 H106       25.7243    4.4698   -5.0295 H         1 UNK         0.0770 
    107 H107       23.5609    2.3061   -5.2352 H         1 UNK         0.0814 
    108 H108       23.2877    4.0391   -5.3441 H         1 UNK         0.0814 
    109 H109       23.8592    3.3373   -3.8379 H         1 UNK         0.0814 
    110 H110       25.4384    1.4641   -6.9659 H         1 UNK         0.2983 
    111 H111       25.1166    2.8375   -9.4987 H         1 UNK         0.0947 
    112 H112       25.3227    0.5332  -10.4171 H         1 UNK         0.0806 
    113 H113       24.2175    0.5446   -9.0526 H         1 UNK         0.0806 
    114 H114       25.8584   -0.0681   -8.8539 H         1 UNK         0.0806 
    115 H115       27.8354    2.3636   -7.5449 H         1 UNK         0.3000 
    116 H116       29.9902    2.6261   -7.6533 H         1 UNK         0.0850 
    117 H117       31.1591    3.7222   -9.5326 H         1 UNK         0.0810 
    118 H118       29.6887    4.5979   -9.1387 H         1 UNK         0.0810 
    119 H119       29.7472    3.5619  -10.5635 H         1 UNK         0.0810 
    120 H120       28.8281    1.0595  -10.5983 H         1 UNK         0.3040 
    121 H121       29.3657   -0.7970  -11.7363 H         1 UNK         0.0766 
    122 H122       29.5103   -1.8759   -8.8795 H         1 UNK         0.0812 
    123 H123       29.1868   -2.8398  -10.3142 H         1 UNK         0.0812 
    124 H124       28.0436   -1.6077   -9.8081 H         1 UNK         0.0812 
    125 H125       31.6830    0.7649  -11.4692 H         1 UNK         0.3205 
    126 H126       33.8300    0.8388  -11.9285 H         1 UNK         0.0754 
    127 H127       34.9602   -0.9959  -13.1014 H         1 UNK         0.0769 
    128 H128       33.3129   -0.8724  -13.6914 H         1 UNK         0.0769 
    129 H129       33.7552   -2.1545  -12.5647 H         1 UNK         0.0769 
    130 H130       32.8647   -0.1007   -9.0946 H         1 UNK         0.2981 
    131 H131       35.3469   -1.2524   -8.0335 H         1 UNK         0.0541 
    132 H132       35.6217    2.7591   -7.8041 H         1 UNK         0.3459 
    133 H133       34.4566    1.9864   -8.8505 H         1 UNK         0.3459 
    134 H134       32.8398   -0.3118   -6.5847 H         1 UNK         0.0612 
    135 H135       34.2006   -1.0868   -5.8133 H         1 UNK         0.0612 
    136 H136       30.8434   -1.5463   -7.0614 H         1 UNK         0.0624 
    137 H137       30.6582   -3.2829   -7.0846 H         1 UNK         0.0624 
@<TRIPOS>BOND
     1    1    2 1    
     2    1   72 1    
     3    1   73 1    
     4    1   74 1    
     5    2    3 2    
     6    2    4 am   BACKBONE|DICT|INTERRES
     7    4    5 1    
     8    4   75 1    
     9    5    6 1    
    10    5   35 1    
    11    5   76 1    
    12    6    7 1    
    13    6   77 1    
    14    6   78 1    
    15    7    8 1    
    16    8    9 1    
    17    8   79 1    
    18    8   80 1    
    19    9   10 ar   
    20    9   14 ar   
    21   10   11 ar   
    22   10   81 1    
    23   11   12 ar   
    24   11   71 1    
    25   12   13 ar   
    26   12   82 1    
    27   13   14 ar   
    28   13   15 1    
    29   14   83 1    
    30   15   16 1    
    31   15   84 1    
    32   15   85 1    
    33   16   17 1    
    34   17   18 1    
    35   17   86 1    
    36   17   87 1    
    37   18   19 1    
    38   18   37 1    
    39   18   88 1    
    40   19   20 am   BACKBONE|DICT|INTERRES
    41   19   89 1    
    42   20   21 2    
    43   20   22 1    
    44   22   23 1    
    45   22   24 1    
    46   22   90 1    
    47   23   91 1    
    48   23   92 1    
    49   23   93 1    
    50   24   25 am   BACKBONE|DICT|INTERRES
    51   24   94 1    
    52   25   26 2    
    53   25   27 1    
    54   27   28 1    
    55   27   29 1    
    56   27   95 1    
    57   28   96 1    
    58   28   97 1    
    59   28   98 1    
    60   29   30 am   BACKBONE|DICT|INTERRES
    61   29   99 1    
    62   30   31 2    
    63   30   32 1    
    64   32   33 1    
    65   32   34 1    
    66   32  100 1    
    67   33  101 1    
    68   33  102 1    
    69   33  103 1    
    70   34   35 am   BACKBONE|DICT|INTERRES
    71   34  104 1    
    72   35   36 2    
    73   37   38 2    
    74   37   39 am   BACKBONE|DICT|INTERRES
    75   39   40 1    
    76   39  105 1    
    77   40   41 1    
    78   40   42 1    
    79   40  106 1    
    80   41  107 1    
    81   41  108 1    
    82   41  109 1    
    83   42   43 2    
    84   42   44 am   BACKBONE|DICT|INTERRES
    85   44   45 1    
    86   44  110 1    
    87   45   46 1    
    88   45   47 1    
    89   45  111 1    
    90   46  112 1    
    91   46  113 1    
    92   46  114 1    
    93   47   48 2    
    94   47   49 am   BACKBONE|DICT|INTERRES
    95   49   50 1    
    96   49  115 1    
    97   50   51 1    
    98   50   52 1    
    99   50  116 1    
   100   51  117 1    
   101   51  118 1    
   102   51  119 1    
   103   52   53 2    
   104   52   54 am   BACKBONE|DICT|INTERRES
   105   54   55 1    
   106   54  120 1    
   107   55   56 1    
   108   55   57 1    
   109   55  121 1    
   110   56  122 1    
   111   56  123 1    
   112   56  124 1    
   113   57   58 2    
   114   57   59 am   BACKBONE|DICT|INTERRES
   115   59   60 1    
   116   59  125 1    
   117   60   61 1    
   118   60   62 1    
   119   60  126 1    
   120   61  127 1    
   121   61  128 1    
   122   61  129 1    
   123   62   63 2    
   124   62   64 am   BACKBONE|DICT|INTERRES
   125   64   65 1    
   126   64  130 1    
   127   65   66 1    
   128   65   69 1    
   129   65  131 1    
   130   66   67 am   BACKBONE|DICT|INTERRES
   131   66   68 2    
   132   67  132 1    
   133   67  133 1    
   134   69   70 1    
   135   69  134 1    
   136   69  135 1    
   137   70   71 1    
   138   71  136 1    
   139   71  137 1    
@<TRIPOS>SUBSTRUCTURE
     1 UNK         1 GROUP             0       ****    0 ROOT    
