@<TRIPOS>MOLECULE
3R137
137   139    1
SMALL
USER_CHARGES


@<TRIPOS>ATOM
      1 CA         25.3944   -7.0996   -0.7216 C.3       0 UNK        -0.2020 
      2 C          25.9791   -5.7239   -1.0029 C.2       0 UNK         0.4855 
      3 O          25.8942   -5.2475   -2.1346 O.2       0 UNK        -0.5197 
      4 N          26.5496   -5.0777    0.0245 N.am      1 UNK        -0.4892 
      5 CA         27.2361   -3.7706    0.0248 C.3       1 UNK         0.0835 
      6 C6         28.4449   -3.6901   -0.9428 C.3       12 UNK        -0.0855 
      7 S7         29.6823   -5.0006   -0.6448 S.3       12 UNK        -0.2931 
      8 C8         31.2233   -4.1852   -1.1913 C.3       12 UNK         0.0378 
      9 C9         31.1486   -3.5840   -2.5942 C.ar      12 UNK        -0.0802 
     10 C10        31.7839   -2.3638   -2.8542 C.ar      12 UNK        -0.0944 
     11 C11        31.7287   -1.7796   -4.1236 C.ar      12 UNK        -0.0787 
     12 C12        30.9894   -2.4211   -5.1253 C.ar      12 UNK        -0.0862 
     13 C13        30.3699   -3.6509   -4.8947 C.ar      12 UNK        -0.0733 
     14 C14        30.4697   -4.2366   -3.6311 C.ar      12 UNK        -0.0832 
     15 C15        29.6345   -4.3548   -6.0306 C.3       12 UNK         0.0240 
     16 S16        27.8965   -4.7701   -5.6570 S.3       12 UNK        -0.2522 
     17 C17        27.1693   -3.1829   -5.1305 C.3       12 UNK        -0.0967 
     18 CA         26.8121   -2.2318   -6.3077 C.3       5 UNK         0.0660 
     19 N          25.5698   -1.4932   -6.0590 N.am      5 UNK        -0.4015 
     20 C          24.9212   -0.7532   -6.9726 C.2       4 UNK         0.4946 
     21 O          25.2692   -0.6567   -8.1488 O.2       4 UNK        -0.5353 
     22 CA         23.6999    0.0514   -6.4915 C.3       4 UNK         0.0277 
     23 CB         22.4239   -0.8001   -6.5856 C.3       4 UNK        -0.1981 
     24 N          23.8456    0.5651   -5.1278 N.am      4 UNK        -0.4209 
     25 C          24.7859    1.4377   -4.7358 C.2       3 UNK         0.4942 
     26 O          25.5855    1.9683   -5.5038 O.2       3 UNK        -0.5208 
     27 CA         24.8929    1.7253   -3.2276 C.3       3 UNK         0.0250 
     28 CB         24.0876    2.9821   -2.8625 C.3       3 UNK        -0.1990 
     29 N          24.4700    0.6062   -2.3764 N.am      3 UNK        -0.4232 
     30 C          25.0187   -0.6169   -2.3875 C.2       2 UNK         0.4993 
     31 O          25.9380   -0.9500   -3.1417 O.2       2 UNK        -0.5286 
     32 CA         24.3644   -1.6580   -1.4678 C.3       2 UNK         0.0209 
     33 CB         23.1729   -2.3193   -2.1806 C.3       2 UNK        -0.1931 
     34 N          25.3121   -2.7001   -1.0822 N.am      2 UNK        -0.4546 
     35 C          26.2947   -2.5639   -0.1861 C.2       1 UNK         0.5154 
     36 O          26.4647   -1.5421    0.4815 O.2       1 UNK        -0.5181 
     37 C          27.9591   -1.2473   -6.5949 C.2       5 UNK         0.5014 
     38 O          28.6501   -1.3764   -7.6074 O.2       5 UNK        -0.5248 
     39 N          28.1039   -0.2572   -5.7024 N.am      6 UNK        -0.4434 
     40 CA         29.0979    0.8106   -5.7835 C.3       6 UNK         0.0363 
     41 CB         29.0366    1.6523   -4.5000 C.3       6 UNK        -0.1936 
     42 C          28.9434    1.6824   -7.0391 C.2       6 UNK         0.5081 
     43 O          29.9511    2.0366   -7.6502 O.2       6 UNK        -0.5248 
     44 N          27.6960    1.9848   -7.4214 N.am      7 UNK        -0.4718 
     45 CA         27.3554    2.6948   -8.6537 C.3       7 UNK         0.0273 
     46 CB         25.8700    3.0887   -8.6321 C.3       7 UNK        -0.1935 
     47 C          27.6858    1.8828   -9.9163 C.2       7 UNK         0.5018 
     48 O          28.2748    2.4377  -10.8440 O.2       7 UNK        -0.5186 
     49 N          27.3201    0.5914   -9.9283 N.am      8 UNK        -0.4240 
     50 CA         27.5595   -0.3262  -11.0468 C.3       8 UNK         0.0235 
     51 CB         26.8034   -1.6445  -10.8154 C.3       8 UNK        -0.2000 
     52 C          29.0507   -0.5971  -11.2996 C.2       8 UNK         0.4941 
     53 O          29.4835   -0.5638  -12.4522 O.2       8 UNK        -0.5273 
     54 N          29.8089   -0.8486  -10.2243 N.am      9 UNK        -0.4262 
     55 CA         31.2532   -1.0952  -10.2781 C.3       9 UNK         0.0264 
     56 CB         31.6535   -1.9173   -9.0478 C.3       9 UNK        -0.1955 
     57 C          32.0977    0.1910  -10.3729 C.2       9 UNK         0.5031 
     58 O          33.2930    0.0961  -10.6534 O.2       9 UNK        -0.5390 
     59 N          31.4766    1.3544  -10.1290 N.am      10 UNK        -0.4204 
     60 CA         32.0400    2.7114  -10.1434 C.3       10 UNK         0.0237 
     61 CB         32.6297    3.0652  -11.5257 C.3       10 UNK        -0.1985 
     62 C          33.0114    3.0222   -8.9850 C.2       10 UNK         0.4970 
     63 O          33.6794    4.0571   -9.0266 O.2       10 UNK        -0.4914 
     64 N          33.0514    2.1630   -7.9590 N.am      11 UNK        -0.4285 
     65 CA         33.7464    2.3974   -6.6817 C.3       11 UNK         0.1007 
     66 C          32.9623    3.2989   -5.6855 C.2       11 UNK         0.5703 
     67 N          31.7052    3.6396   -5.9400 N.am      11 UNK        -0.7361 
     68 O          33.5175    3.7230   -4.6748 O.2       11 UNK        -0.4986 
     69 C69        34.2596    1.0834   -6.0248 C.3       12 UNK        -0.0947 
     70 S70        33.1008   -0.3234   -6.0958 S.3       12 UNK        -0.2240 
     71 C71        32.4776   -0.4678   -4.3854 C.3       12 UNK         0.0194 
     72 H72        25.8749   -7.8455   -1.3540 H         1 UNK         0.0906 
     73 H73        25.5308   -7.3980    0.3177 H         1 UNK         0.0906 
     74 H74        24.3268   -7.1049   -0.9394 H         1 UNK         0.0906 
     75 H75        26.5449   -5.5334    0.9269 H         1 UNK         0.3140 
     76 H76        27.6305   -3.6585    1.0364 H         1 UNK         0.1085 
     77 H77        28.1141   -3.7553   -1.9810 H         1 UNK         0.0836 
     78 H78        28.9381   -2.7206   -0.8445 H         1 UNK         0.0836 
     79 H79        31.4757   -3.4140   -0.4618 H         1 UNK         0.0731 
     80 H80        32.0349   -4.9133   -1.1648 H         1 UNK         0.0731 
     81 H81        32.3330   -1.8687   -2.0647 H         1 UNK         0.1312 
     82 H82        30.9084   -1.9746   -6.1027 H         1 UNK         0.1406 
     83 H83        29.9956   -5.1920   -3.4521 H         1 UNK         0.1631 
     84 H84        29.6618   -3.7578   -6.9426 H         1 UNK         0.0717 
     85 H85        30.1652   -5.2784   -6.2651 H         1 UNK         0.0717 
     86 H86        26.2631   -3.4515   -4.5843 H         1 UNK         0.0934 
     87 H87        27.8062   -2.7091   -4.3804 H         1 UNK         0.0934 
     88 H88        26.6497   -2.8259   -7.2098 H         1 UNK         0.0739 
     89 H89        25.2724   -1.4459   -5.0922 H         1 UNK         0.3093 
     90 H90        23.5886    0.9092   -7.1580 H         1 UNK         0.0818 
     91 H91        21.5377   -0.2169   -6.3346 H         1 UNK         0.0819 
     92 H92        22.2830   -1.1787   -7.5991 H         1 UNK         0.0819 
     93 H93        22.4603   -1.6621   -5.9181 H         1 UNK         0.0819 
     94 H94        23.2189    0.1941   -4.4292 H         1 UNK         0.3041 
     95 H95        25.9455    1.9188   -3.0108 H         1 UNK         0.0784 
     96 H96        24.4007    3.8347   -3.4672 H         1 UNK         0.0793 
     97 H97        23.0187    2.8408   -3.0276 H         1 UNK         0.0793 
     98 H98        24.2337    3.2586   -1.8181 H         1 UNK         0.0793 
     99 H99        23.7071    0.7914   -1.7403 H         1 UNK         0.3024 
    100 H100       24.0102   -1.1591   -0.5626 H         1 UNK         0.1171 
    101 H101       22.6854   -3.0524   -1.5374 H         1 UNK         0.0786 
    102 H102       22.4175   -1.5825   -2.4570 H         1 UNK         0.0786 
    103 H103       23.4821   -2.8310   -3.0933 H         1 UNK         0.0786 
    104 H104       25.3048   -3.5632   -1.6207 H         1 UNK         0.2977 
    105 H105       27.4746   -0.2330   -4.9104 H         1 UNK         0.3127 
    106 H106       30.0790    0.3393   -5.8409 H         1 UNK         0.0770 
    107 H107       28.0837    2.1726   -4.4022 H         1 UNK         0.0814 
    108 H108       29.8205    2.4077   -4.4860 H         1 UNK         0.0814 
    109 H109       29.1744    1.0332   -3.6133 H         1 UNK         0.0814 
    110 H110       26.9240    1.7344   -6.8075 H         1 UNK         0.2983 
    111 H111       27.9497    3.6108   -8.6849 H         1 UNK         0.0947 
    112 H112       25.5986    3.6409   -9.5328 H         1 UNK         0.0806 
    113 H113       25.6426    3.7275   -7.7785 H         1 UNK         0.0806 
    114 H114       25.2212    2.2142   -8.5759 H         1 UNK         0.0806 
    115 H115       26.8092    0.2150   -9.1346 H         1 UNK         0.3000 
    116 H116       27.1546    0.1404  -11.9475 H         1 UNK         0.0850 
    117 H117       26.9766   -2.3455  -11.6329 H         1 UNK         0.0810 
    118 H118       25.7278   -1.4773  -10.7555 H         1 UNK         0.0810 
    119 H119       27.1164   -2.1332   -9.8917 H         1 UNK         0.0810 
    120 H120       29.3636   -0.9079   -9.3094 H         1 UNK         0.3040 
    121 H121       31.4761   -1.6912  -11.1657 H         1 UNK         0.0766 
    122 H122       31.1386   -2.8777   -9.0236 H         1 UNK         0.0812 
    123 H123       31.4029   -1.3796   -8.1371 H         1 UNK         0.0812 
    124 H124       32.7256   -2.1179   -9.0309 H         1 UNK         0.0812 
    125 H125       30.5038    1.3090   -9.8525 H         1 UNK         0.3205 
    126 H126       31.1853    3.3704   -9.9826 H         1 UNK         0.0754 
    127 H127       32.8792    4.1252  -11.5856 H         1 UNK         0.0769 
    128 H128       31.9180    2.8566  -12.3246 H         1 UNK         0.0769 
    129 H129       33.5428    2.5068  -11.7335 H         1 UNK         0.0769 
    130 H130       32.4410    1.3594   -7.9821 H         1 UNK         0.2981 
    131 H131       34.6419    2.9784   -6.9103 H         1 UNK         0.0541 
    132 H132       31.2145    3.2409   -6.7328 H         1 UNK         0.3459 
    133 H133       31.2241    4.2508   -5.3010 H         1 UNK         0.3459 
    134 H134       34.5856    1.2459   -4.9960 H         1 UNK         0.0612 
    135 H135       35.1560    0.7618   -6.5567 H         1 UNK         0.0612 
    136 H136       33.3271   -0.3918   -3.7051 H         1 UNK         0.0624 
    137 H137       31.8231    0.3760   -4.1656 H         1 UNK         0.0624 
@<TRIPOS>BOND
     1    1    2 1    
     2    1   72 1    
     3    1   73 1    
     4    1   74 1    
     5    2    3 2    
     6    2    4 am   BACKBONE|DICT|INTERRES
     7    4    5 1    
     8    4   75 1    
     9    5    6 1    
    10    5   35 1    
    11    5   76 1    
    12    6    7 1    
    13    6   77 1    
    14    6   78 1    
    15    7    8 1    
    16    8    9 1    
    17    8   79 1    
    18    8   80 1    
    19    9   10 ar   
    20    9   14 ar   
    21   10   11 ar   
    22   10   81 1    
    23   11   12 ar   
    24   11   71 1    
    25   12   13 ar   
    26   12   82 1    
    27   13   14 ar   
    28   13   15 1    
    29   14   83 1    
    30   15   16 1    
    31   15   84 1    
    32   15   85 1    
    33   16   17 1    
    34   17   18 1    
    35   17   86 1    
    36   17   87 1    
    37   18   19 1    
    38   18   37 1    
    39   18   88 1    
    40   19   20 am   BACKBONE|DICT|INTERRES
    41   19   89 1    
    42   20   21 2    
    43   20   22 1    
    44   22   23 1    
    45   22   24 1    
    46   22   90 1    
    47   23   91 1    
    48   23   92 1    
    49   23   93 1    
    50   24   25 am   BACKBONE|DICT|INTERRES
    51   24   94 1    
    52   25   26 2    
    53   25   27 1    
    54   27   28 1    
    55   27   29 1    
    56   27   95 1    
    57   28   96 1    
    58   28   97 1    
    59   28   98 1    
    60   29   30 am   BACKBONE|DICT|INTERRES
    61   29   99 1    
    62   30   31 2    
    63   30   32 1    
    64   32   33 1    
    65   32   34 1    
    66   32  100 1    
    67   33  101 1    
    68   33  102 1    
    69   33  103 1    
    70   34   35 am   BACKBONE|DICT|INTERRES
    71   34  104 1    
    72   35   36 2    
    73   37   38 2    
    74   37   39 am   BACKBONE|DICT|INTERRES
    75   39   40 1    
    76   39  105 1    
    77   40   41 1    
    78   40   42 1    
    79   40  106 1    
    80   41  107 1    
    81   41  108 1    
    82   41  109 1    
    83   42   43 2    
    84   42   44 am   BACKBONE|DICT|INTERRES
    85   44   45 1    
    86   44  110 1    
    87   45   46 1    
    88   45   47 1    
    89   45  111 1    
    90   46  112 1    
    91   46  113 1    
    92   46  114 1    
    93   47   48 2    
    94   47   49 am   BACKBONE|DICT|INTERRES
    95   49   50 1    
    96   49  115 1    
    97   50   51 1    
    98   50   52 1    
    99   50  116 1    
   100   51  117 1    
   101   51  118 1    
   102   51  119 1    
   103   52   53 2    
   104   52   54 am   BACKBONE|DICT|INTERRES
   105   54   55 1    
   106   54  120 1    
   107   55   56 1    
   108   55   57 1    
   109   55  121 1    
   110   56  122 1    
   111   56  123 1    
   112   56  124 1    
   113   57   58 2    
   114   57   59 am   BACKBONE|DICT|INTERRES
   115   59   60 1    
   116   59  125 1    
   117   60   61 1    
   118   60   62 1    
   119   60  126 1    
   120   61  127 1    
   121   61  128 1    
   122   61  129 1    
   123   62   63 2    
   124   62   64 am   BACKBONE|DICT|INTERRES
   125   64   65 1    
   126   64  130 1    
   127   65   66 1    
   128   65   69 1    
   129   65  131 1    
   130   66   67 am   BACKBONE|DICT|INTERRES
   131   66   68 2    
   132   67  132 1    
   133   67  133 1    
   134   69   70 1    
   135   69  134 1    
   136   69  135 1    
   137   70   71 1    
   138   71  136 1    
   139   71  137 1    
@<TRIPOS>SUBSTRUCTURE
     1 UNK         1 GROUP             0       ****    0 ROOT    
