@<TRIPOS>MOLECULE
3R137
137   139    1
SMALL
USER_CHARGES


@<TRIPOS>ATOM
      1 CA         25.6939   -5.7769   -0.1753 C.3       0 UNK        -0.2020 
      2 C          26.1127   -4.4178    0.3643 C.2       0 UNK         0.4855 
      3 O          25.6182   -3.9923    1.4078 O.2       0 UNK        -0.5197 
      4 N          27.0133   -3.7272   -0.3458 N.am      1 UNK        -0.4892 
      5 CA         27.5701   -2.4171    0.0332 C.3       1 UNK         0.0835 
      6 C6         28.9818   -2.2017   -0.5707 C.3       12 UNK        -0.0855 
      7 S7         30.1458   -3.5171   -0.0718 S.3       12 UNK        -0.2931 
      8 C8         31.5381   -3.2364   -1.2190 C.3       12 UNK         0.0378 
      9 C9         31.1946   -3.4103   -2.6982 C.ar      12 UNK        -0.0802 
     10 C10        31.8551   -2.6225   -3.6458 C.ar      12 UNK        -0.0944 
     11 C11        31.5949   -2.7613   -5.0125 C.ar      12 UNK        -0.0787 
     12 C12        30.6276   -3.6887   -5.4218 C.ar      12 UNK        -0.0862 
     13 C13        29.9513   -4.4843   -4.4910 C.ar      12 UNK        -0.0733 
     14 C14        30.2603   -4.3577   -3.1335 C.ar      12 UNK        -0.0832 
     15 C15        28.9243   -5.5046   -4.9779 C.3       12 UNK         0.0240 
     16 S16        27.3987   -5.5961   -3.9737 S.3       12 UNK        -0.2522 
     17 C17        26.7201   -3.9050   -4.0443 C.3       12 UNK        -0.0967 
     18 CA         26.3082   -3.4377   -5.4723 C.3       5 UNK         0.0660 
     19 N          25.0260   -2.7341   -5.4710 N.am      5 UNK        -0.4015 
     20 C          24.1662   -2.6880   -6.4984 C.2       4 UNK         0.4946 
     21 O          24.2894   -3.3525   -7.5279 O.2       4 UNK        -0.5353 
     22 CA         22.9612   -1.7358   -6.3625 C.3       4 UNK         0.0277 
     23 CB         21.7356   -2.4939   -5.8268 C.3       4 UNK        -0.1981 
     24 N          23.2329   -0.5842   -5.4971 N.am      4 UNK        -0.4209 
     25 C          24.0677    0.4204   -5.8033 C.2       3 UNK         0.4942 
     26 O          24.5968    0.5529   -6.9058 O.2       3 UNK        -0.5208 
     27 CA         24.3952    1.4324   -4.6861 C.3       3 UNK         0.0250 
     28 CB         23.5555    2.7086   -4.8569 C.3       3 UNK        -0.1990 
     29 N          24.2222    0.9185   -3.3184 N.am      3 UNK        -0.4232 
     30 C          24.8664   -0.1380   -2.8033 C.2       2 UNK         0.4993 
     31 O          25.6711   -0.8205   -3.4426 O.2       2 UNK        -0.5286 
     32 CA         24.4865   -0.5505   -1.3735 C.3       2 UNK         0.0209 
     33 CB         23.0853   -1.1862   -1.3537 C.3       2 UNK        -0.1931 
     34 N          25.4417   -1.5270   -0.8502 N.am      2 UNK        -0.4546 
     35 C          26.6330   -1.2349   -0.3131 C.2       1 UNK         0.5154 
     36 O          27.0066   -0.0810   -0.0941 O.2       1 UNK        -0.5181 
     37 C          27.3634   -2.5016   -6.0847 C.2       5 UNK         0.5014 
     38 O          27.9733   -2.8371   -7.1004 O.2       5 UNK        -0.5248 
     39 N          27.5274   -1.3249   -5.4635 N.am      6 UNK        -0.4434 
     40 CA         28.5060   -0.2836   -5.7791 C.3       6 UNK         0.0363 
     41 CB         28.6905    0.5907   -4.5235 C.3       6 UNK        -0.1936 
     42 C          28.1461    0.5364   -7.0363 C.2       6 UNK         0.5081 
     43 O          28.2563    1.7655   -7.0310 O.2       6 UNK        -0.5248 
     44 N          27.7460   -0.1617   -8.1038 N.am      7 UNK        -0.4718 
     45 CA         27.4562    0.3851   -9.4276 C.3       7 UNK         0.0273 
     46 CB         26.8188   -0.7221  -10.2826 C.3       7 UNK        -0.1935 
     47 C          28.7227    0.9361  -10.1040 C.2       7 UNK         0.5018 
     48 O          29.8346    0.5698   -9.7159 O.2       7 UNK        -0.5186 
     49 N          28.5278    1.8066  -11.1052 N.am      8 UNK        -0.4240 
     50 CA         29.5749    2.5065  -11.8645 C.3       8 UNK         0.0235 
     51 CB         30.3727    1.5157  -12.7412 C.3       8 UNK        -0.2000 
     52 C          30.4785    3.3664  -10.9577 C.2       8 UNK         0.4941 
     53 O          31.7038    3.3075  -11.0743 O.2       8 UNK        -0.5273 
     54 N          29.8408    4.1249  -10.0507 N.am      9 UNK        -0.4262 
     55 CA         30.4488    4.9965   -9.0370 C.3       9 UNK         0.0264 
     56 CB         31.0930    6.2316   -9.7033 C.3       9 UNK        -0.1955 
     57 C          31.4207    4.2332   -8.1155 C.2       9 UNK         0.5031 
     58 O          32.5817    4.6267   -7.9848 O.2       9 UNK        -0.5390 
     59 N          30.9192    3.1445   -7.5126 N.am      10 UNK        -0.4204 
     60 CA         31.6485    2.1940   -6.6689 C.3       10 UNK         0.0237 
     61 CB         32.1334    2.8534   -5.3594 C.3       10 UNK        -0.1985 
     62 C          32.7575    1.4547   -7.4359 C.2       10 UNK         0.4970 
     63 O          33.9193    1.4847   -7.0252 O.2       10 UNK        -0.4914 
     64 N          32.3530    0.7633   -8.5092 N.am      11 UNK        -0.4285 
     65 CA         33.1797   -0.1556   -9.3042 C.3       11 UNK         0.1007 
     66 C          34.3282    0.5463  -10.0899 C.2       11 UNK         0.5703 
     67 N          34.1382    1.7695  -10.5695 N.am      11 UNK        -0.7361 
     68 O          35.3997   -0.0223  -10.2902 O.2       11 UNK        -0.4986 
     69 C69        33.6527   -1.3953   -8.4853 C.3       12 UNK        -0.0947 
     70 S70        32.2805   -2.3583   -7.7541 S.3       12 UNK        -0.2240 
     71 C71        32.3868   -1.8868   -5.9899 C.3       12 UNK         0.0194 
     72 H72        24.6273   -5.7805   -0.3985 H         1 UNK         0.0906 
     73 H73        26.2321   -6.0391   -1.0860 H         1 UNK         0.0906 
     74 H74        25.8894   -6.5508    0.5666 H         1 UNK         0.0906 
     75 H75        27.4058   -4.1383   -1.1806 H         1 UNK         0.3140 
     76 H76        27.6761   -2.3984    1.1204 H         1 UNK         0.1085 
     77 H77        28.9246   -2.1565   -1.6599 H         1 UNK         0.0836 
     78 H78        29.4021   -1.2474   -0.2469 H         1 UNK         0.0836 
     79 H79        31.9304   -2.2344   -1.0375 H         1 UNK         0.0731 
     80 H80        32.3399   -3.9318   -0.9679 H         1 UNK         0.0731 
     81 H81        32.5923   -1.9018   -3.3178 H         1 UNK         0.1312 
     82 H82        30.3932   -3.8030   -6.4704 H         1 UNK         0.1406 
     83 H83        29.7637   -4.9944   -2.4149 H         1 UNK         0.1631 
     84 H84        28.6456   -5.3082   -6.0140 H         1 UNK         0.0717 
     85 H85        29.3945   -6.4885   -4.9750 H         1 UNK         0.0717 
     86 H86        25.8447   -3.9146   -3.3927 H         1 UNK         0.0934 
     87 H87        27.4187   -3.2227   -3.5554 H         1 UNK         0.0934 
     88 H88        26.2169   -4.3130   -6.1192 H         1 UNK         0.0739 
     89 H89        24.8854   -2.0977   -4.6944 H         1 UNK         0.3093 
     90 H90        22.7241   -1.3616   -7.3610 H         1 UNK         0.0818 
     91 H91        20.8543   -1.8530   -5.7958 H         1 UNK         0.0819 
     92 H92        21.4931   -3.3433   -6.4670 H         1 UNK         0.0819 
     93 H93        21.9057   -2.8822   -4.8217 H         1 UNK         0.0819 
     94 H94        22.8109   -0.5911   -4.5804 H         1 UNK         0.3041 
     95 H95        25.4472    1.7004   -4.8028 H         1 UNK         0.0784 
     96 H96        23.6855    3.1307   -5.8547 H         1 UNK         0.0793 
     97 H97        22.4909    2.5132   -4.7220 H         1 UNK         0.0793 
     98 H98        23.8507    3.4776   -4.1428 H         1 UNK         0.0793 
     99 H99        23.5639    1.4159   -2.7352 H         1 UNK         0.3024 
    100 H100       24.4919    0.3388   -0.7387 H         1 UNK         0.1171 
    101 H101       22.8118   -1.5048   -0.3474 H         1 UNK         0.0786 
    102 H102       22.3221   -0.4793   -1.6814 H         1 UNK         0.0786 
    103 H103       23.0255   -2.0586   -2.0061 H         1 UNK         0.0786 
    104 H104       25.2316   -2.5006   -1.0088 H         1 UNK         0.2977 
    105 H105       26.9159   -1.1205   -4.6734 H         1 UNK         0.3127 
    106 H106       29.4592   -0.7718   -5.9906 H         1 UNK         0.0770 
    107 H107       27.7603    1.0830   -4.2391 H         1 UNK         0.0814 
    108 H108       29.4333    1.3724   -4.6765 H         1 UNK         0.0814 
    109 H109       29.0244   -0.0059   -3.6741 H         1 UNK         0.0814 
    110 H110       27.7485   -1.1738   -8.0155 H         1 UNK         0.2983 
    111 H111       26.7411    1.2013   -9.3042 H         1 UNK         0.0947 
    112 H112       26.5441   -0.3515  -11.2709 H         1 UNK         0.0806 
    113 H113       25.9100   -1.1058   -9.8176 H         1 UNK         0.0806 
    114 H114       27.5010   -1.5614  -10.4259 H         1 UNK         0.0806 
    115 H115       27.5767    2.0392  -11.3577 H         1 UNK         0.3000 
    116 H116       29.0654    3.2012  -12.5343 H         1 UNK         0.0850 
    117 H117       29.7125    0.9320  -13.3823 H         1 UNK         0.0810 
    118 H118       30.9581    0.8194  -12.1396 H         1 UNK         0.0810 
    119 H119       31.0703    2.0453  -13.3912 H         1 UNK         0.0810 
    120 H120       28.8316    4.0759  -10.0314 H         1 UNK         0.3040 
    121 H121       29.6367    5.3521   -8.4008 H         1 UNK         0.0766 
    122 H122       30.3719    6.7746  -10.3142 H         1 UNK         0.0812 
    123 H123       31.9331    5.9560  -10.3418 H         1 UNK         0.0812 
    124 H124       31.4703    6.9273   -8.9528 H         1 UNK         0.0812 
    125 H125       29.9471    2.9023   -7.6777 H         1 UNK         0.3205 
    126 H126       30.9319    1.4233   -6.3928 H         1 UNK         0.0754 
    127 H127       32.8934    3.6138   -5.5410 H         1 UNK         0.0769 
    128 H128       32.5719    2.1112   -4.6912 H         1 UNK         0.0769 
    129 H129       31.3088    3.3239   -4.8242 H         1 UNK         0.0769 
    130 H130       31.3809    0.8128   -8.8101 H         1 UNK         0.2981 
    131 H131       32.5155   -0.5320  -10.0828 H         1 UNK         0.0541 
    132 H132       33.2429    2.2418  -10.4835 H         1 UNK         0.3459 
    133 H133       34.8843    2.2147  -11.0783 H         1 UNK         0.3459 
    134 H134       34.3572   -1.0994   -7.7069 H         1 UNK         0.0612 
    135 H135       34.2004   -2.0817   -9.1330 H         1 UNK         0.0612 
    136 H136       32.0474   -0.8577   -5.8797 H         1 UNK         0.0624 
    137 H137       33.4369   -1.9039   -5.6944 H         1 UNK         0.0624 
@<TRIPOS>BOND
     1    1    2 1    
     2    1   72 1    
     3    1   73 1    
     4    1   74 1    
     5    2    3 2    
     6    2    4 am   BACKBONE|DICT|INTERRES
     7    4    5 1    
     8    4   75 1    
     9    5    6 1    
    10    5   35 1    
    11    5   76 1    
    12    6    7 1    
    13    6   77 1    
    14    6   78 1    
    15    7    8 1    
    16    8    9 1    
    17    8   79 1    
    18    8   80 1    
    19    9   10 ar   
    20    9   14 ar   
    21   10   11 ar   
    22   10   81 1    
    23   11   12 ar   
    24   11   71 1    
    25   12   13 ar   
    26   12   82 1    
    27   13   14 ar   
    28   13   15 1    
    29   14   83 1    
    30   15   16 1    
    31   15   84 1    
    32   15   85 1    
    33   16   17 1    
    34   17   18 1    
    35   17   86 1    
    36   17   87 1    
    37   18   19 1    
    38   18   37 1    
    39   18   88 1    
    40   19   20 am   BACKBONE|DICT|INTERRES
    41   19   89 1    
    42   20   21 2    
    43   20   22 1    
    44   22   23 1    
    45   22   24 1    
    46   22   90 1    
    47   23   91 1    
    48   23   92 1    
    49   23   93 1    
    50   24   25 am   BACKBONE|DICT|INTERRES
    51   24   94 1    
    52   25   26 2    
    53   25   27 1    
    54   27   28 1    
    55   27   29 1    
    56   27   95 1    
    57   28   96 1    
    58   28   97 1    
    59   28   98 1    
    60   29   30 am   BACKBONE|DICT|INTERRES
    61   29   99 1    
    62   30   31 2    
    63   30   32 1    
    64   32   33 1    
    65   32   34 1    
    66   32  100 1    
    67   33  101 1    
    68   33  102 1    
    69   33  103 1    
    70   34   35 am   BACKBONE|DICT|INTERRES
    71   34  104 1    
    72   35   36 2    
    73   37   38 2    
    74   37   39 am   BACKBONE|DICT|INTERRES
    75   39   40 1    
    76   39  105 1    
    77   40   41 1    
    78   40   42 1    
    79   40  106 1    
    80   41  107 1    
    81   41  108 1    
    82   41  109 1    
    83   42   43 2    
    84   42   44 am   BACKBONE|DICT|INTERRES
    85   44   45 1    
    86   44  110 1    
    87   45   46 1    
    88   45   47 1    
    89   45  111 1    
    90   46  112 1    
    91   46  113 1    
    92   46  114 1    
    93   47   48 2    
    94   47   49 am   BACKBONE|DICT|INTERRES
    95   49   50 1    
    96   49  115 1    
    97   50   51 1    
    98   50   52 1    
    99   50  116 1    
   100   51  117 1    
   101   51  118 1    
   102   51  119 1    
   103   52   53 2    
   104   52   54 am   BACKBONE|DICT|INTERRES
   105   54   55 1    
   106   54  120 1    
   107   55   56 1    
   108   55   57 1    
   109   55  121 1    
   110   56  122 1    
   111   56  123 1    
   112   56  124 1    
   113   57   58 2    
   114   57   59 am   BACKBONE|DICT|INTERRES
   115   59   60 1    
   116   59  125 1    
   117   60   61 1    
   118   60   62 1    
   119   60  126 1    
   120   61  127 1    
   121   61  128 1    
   122   61  129 1    
   123   62   63 2    
   124   62   64 am   BACKBONE|DICT|INTERRES
   125   64   65 1    
   126   64  130 1    
   127   65   66 1    
   128   65   69 1    
   129   65  131 1    
   130   66   67 am   BACKBONE|DICT|INTERRES
   131   66   68 2    
   132   67  132 1    
   133   67  133 1    
   134   69   70 1    
   135   69  134 1    
   136   69  135 1    
   137   70   71 1    
   138   71  136 1    
   139   71  137 1    
@<TRIPOS>SUBSTRUCTURE
     1 UNK         1 GROUP             0       ****    0 ROOT    
