@<TRIPOS>MOLECULE
3R137
137   139    1
SMALL
USER_CHARGES


@<TRIPOS>ATOM
      1 CA         32.0863   -0.2306   -1.1825 C.3       0 UNK        -0.2020 
      2 C          30.7145   -0.8519   -0.9666 C.2       0 UNK         0.4855 
      3 O          30.0867   -0.5945    0.0611 O.2       0 UNK        -0.5197 
      4 N          30.2566   -1.6702   -1.9241 N.am      1 UNK        -0.4892 
      5 CA         28.9681   -2.3782   -1.9319 C.3       1 UNK         0.0835 
      6 C6         28.8246   -3.4554   -0.8088 C.3       12 UNK        -0.0855 
      7 S7         30.2761   -4.5460   -0.5852 S.3       12 UNK        -0.2931 
      8 C8         30.0296   -5.8374   -1.8503 C.3       12 UNK         0.0378 
      9 C9         30.2745   -5.3279   -3.2657 C.ar      12 UNK        -0.0802 
     10 C10        31.4351   -4.6073   -3.5719 C.ar      12 UNK        -0.0944 
     11 C11        31.6345   -4.0941   -4.8553 C.ar      12 UNK        -0.0787 
     12 C12        30.6891   -4.3432   -5.8511 C.ar      12 UNK        -0.0862 
     13 C13        29.5271   -5.0628   -5.5604 C.ar      12 UNK        -0.0733 
     14 C14        29.3288   -5.5620   -4.2693 C.ar      12 UNK        -0.0832 
     15 C15        28.4609   -5.2466   -6.6306 C.3       12 UNK         0.0240 
     16 S16        26.9602   -4.2809   -6.2595 S.3       12 UNK        -0.2522 
     17 C17        27.6118   -2.5808   -6.0980 C.3       12 UNK        -0.0967 
     18 CA         27.0440   -1.6041   -7.1510 C.3       5 UNK         0.0660 
     19 N          25.5806   -1.5988   -7.1276 N.am      5 UNK        -0.4015 
     20 C          24.7395   -0.7470   -7.7288 C.2       4 UNK         0.4946 
     21 O          25.0862    0.0897   -8.5639 O.2       4 UNK        -0.5353 
     22 CA         23.2756   -0.7789   -7.2427 C.3       4 UNK         0.0277 
     23 CB         22.3981   -1.5388   -8.2493 C.3       4 UNK        -0.1981 
     24 N          23.0924   -1.3555   -5.8973 N.am      4 UNK        -0.4209 
     25 C          23.7223   -0.9543   -4.7797 C.2       3 UNK         0.4942 
     26 O          24.5064   -0.0024   -4.7619 O.2       3 UNK        -0.5208 
     27 CA         23.4933   -1.7990   -3.5069 C.3       3 UNK         0.0250 
     28 CB         23.4507   -3.3117   -3.8056 C.3       3 UNK        -0.1990 
     29 N          24.5377   -1.5622   -2.5060 N.am      3 UNK        -0.4232 
     30 C          24.6109   -0.4981   -1.6966 C.2       2 UNK         0.4993 
     31 O          23.7370    0.3685   -1.6301 O.2       2 UNK        -0.5286 
     32 CA         25.8467   -0.3803   -0.7836 C.3       2 UNK         0.0209 
     33 CB         25.4314   -0.4295    0.6976 C.3       2 UNK        -0.1931 
     34 N          26.8878   -1.3930   -1.0069 N.am      2 UNK        -0.4546 
     35 C          27.8040   -1.3568   -1.9865 C.2       1 UNK         0.5154 
     36 O          27.7687   -0.5431   -2.9103 O.2       1 UNK        -0.5181 
     37 C          27.6718   -0.2121   -6.9274 C.2       5 UNK         0.5014 
     38 O          28.6826    0.0888   -7.5617 O.2       5 UNK        -0.5248 
     39 N          27.0548    0.6275   -6.0817 N.am      6 UNK        -0.4434 
     40 CA         27.4757    2.0066   -5.8183 C.3       6 UNK         0.0363 
     41 CB         26.6097    2.5907   -4.6914 C.3       6 UNK        -0.1936 
     42 C          27.4412    2.9241   -7.0571 C.2       6 UNK         0.5081 
     43 O          28.1561    3.9259   -7.0728 O.2       6 UNK        -0.5248 
     44 N          26.6379    2.5674   -8.0684 N.am      7 UNK        -0.4718 
     45 CA         26.6066    3.2187   -9.3767 C.3       7 UNK         0.0273 
     46 CB         25.1476    3.5164   -9.7605 C.3       7 UNK        -0.1935 
     47 C          27.2761    2.3414  -10.4457 C.2       7 UNK         0.5018 
     48 O          28.0312    2.8667  -11.2638 O.2       7 UNK        -0.5186 
     49 N          26.9744    1.0337  -10.4397 N.am      8 UNK        -0.4240 
     50 CA         27.4063    0.0764  -11.4621 C.3       8 UNK         0.0235 
     51 CB         26.5742   -1.2112  -11.3450 C.3       8 UNK        -0.2000 
     52 C          28.9104   -0.2427  -11.4335 C.2       8 UNK         0.4941 
     53 O          29.5183   -0.3410  -12.5004 O.2       8 UNK        -0.5273 
     54 N          29.4780   -0.4065  -10.2319 N.am      9 UNK        -0.4262 
     55 CA         30.9048   -0.6569  -10.0107 C.3       9 UNK         0.0264 
     56 CB         31.0828   -1.8111   -9.0065 C.3       9 UNK        -0.1955 
     57 C          31.6067    0.6111   -9.5059 C.2       9 UNK         0.5031 
     58 O          32.7249    0.8903   -9.9396 O.2       9 UNK        -0.5390 
     59 N          30.9367    1.3481   -8.6054 N.am      10 UNK        -0.4204 
     60 CA         31.3793    2.5898   -7.9581 C.3       10 UNK         0.0237 
     61 CB         31.4879    3.7376   -8.9840 C.3       10 UNK        -0.1985 
     62 C          32.6481    2.4152   -7.0987 C.2       10 UNK         0.4970 
     63 O          33.4566    3.3399   -6.9936 O.2       10 UNK        -0.4914 
     64 N          32.7927    1.2292   -6.4962 N.am      11 UNK        -0.4285 
     65 CA         33.8542    0.8756   -5.5468 C.3       11 UNK         0.1007 
     66 C          33.7333    1.6127   -4.1817 C.2       11 UNK         0.5703 
     67 N          34.8050    1.6430   -3.4006 N.am      11 UNK        -0.7361 
     68 O          32.6830    2.1358   -3.8127 O.2       11 UNK        -0.4986 
     69 C69        33.9652   -0.6651   -5.3857 C.3       12 UNK        -0.0947 
     70 S70        32.4002   -1.4714   -4.9081 S.3       12 UNK        -0.2240 
     71 C71        32.8366   -3.2175   -5.1547 C.3       12 UNK         0.0194 
     72 H72        32.6106   -0.6782   -2.0258 H         1 UNK         0.0906 
     73 H73        31.9879    0.8381   -1.3711 H         1 UNK         0.0906 
     74 H74        32.7043   -0.3651   -0.2953 H         1 UNK         0.0906 
     75 H75        30.8170   -1.8090   -2.7543 H         1 UNK         0.3140 
     76 H76        28.9296   -2.9008   -2.8884 H         1 UNK         0.1085 
     77 H77        28.6688   -2.9769    0.1596 H         1 UNK         0.0836 
     78 H78        27.9460   -4.0779   -0.9882 H         1 UNK         0.0836 
     79 H79        30.7231   -6.6558   -1.6533 H         1 UNK         0.0731 
     80 H80        29.0257   -6.2521   -1.7468 H         1 UNK         0.0731 
     81 H81        32.1645   -4.4102   -2.7980 H         1 UNK         0.1312 
     82 H82        30.8384   -3.9356   -6.8414 H         1 UNK         0.1406 
     83 H83        28.4219   -6.1072   -4.0440 H         1 UNK         0.1631 
     84 H84        28.1970   -6.3026   -6.7027 H         1 UNK         0.0717 
     85 H85        28.8372   -4.9549   -7.6125 H         1 UNK         0.0717 
     86 H86        28.6996   -2.5860   -6.1588 H         1 UNK         0.0934 
     87 H87        27.3753   -2.2367   -5.0891 H         1 UNK         0.0934 
     88 H88        27.3496   -1.9470   -8.1402 H         1 UNK         0.0739 
     89 H89        25.1724   -2.2663   -6.4911 H         1 UNK         0.3093 
     90 H90        22.9341    0.2573   -7.2005 H         1 UNK         0.0818 
     91 H91        21.3431   -1.4805   -7.9813 H         1 UNK         0.0819 
     92 H92        22.4985   -1.1168   -9.2506 H         1 UNK         0.0819 
     93 H93        22.6731   -2.5926   -8.3114 H         1 UNK         0.0819 
     94 H94        22.4605   -2.1409   -5.8319 H         1 UNK         0.3041 
     95 H95        22.5305   -1.5016   -3.0861 H         1 UNK         0.0784 
     96 H96        22.5966   -3.5780   -4.4289 H         1 UNK         0.0793 
     97 H97        24.3532   -3.6509   -4.3165 H         1 UNK         0.0793 
     98 H98        23.3547   -3.8910   -2.8867 H         1 UNK         0.0793 
     99 H99        25.3147   -2.2047   -2.4998 H         1 UNK         0.3024 
    100 H100       26.2820    0.6024   -0.9809 H         1 UNK         0.1171 
    101 H101       26.2854   -0.2640    1.3550 H         1 UNK         0.0786 
    102 H102       24.9845   -1.3893    0.9598 H         1 UNK         0.0786 
    103 H103       24.6975    0.3446    0.9268 H         1 UNK         0.0786 
    104 H104       26.9857   -2.0924   -0.2855 H         1 UNK         0.2977 
    105 H105       26.2152    0.3169   -5.5964 H         1 UNK         0.3127 
    106 H106       28.5101    1.9703   -5.4703 H         1 UNK         0.0770 
    107 H107       25.5581    2.6390   -4.9770 H         1 UNK         0.0814 
    108 H108       26.9279    3.6023   -4.4362 H         1 UNK         0.0814 
    109 H109       26.6816    1.9884   -3.7851 H         1 UNK         0.0814 
    110 H110       26.0877    1.7196   -7.9760 H         1 UNK         0.2983 
    111 H111       27.1466    4.1678   -9.3451 H         1 UNK         0.0947 
    112 H112       25.0913    3.9958  -10.7388 H         1 UNK         0.0806 
    113 H113       24.6813    4.1907   -9.0421 H         1 UNK         0.0806 
    114 H114       24.5446    2.6084   -9.8057 H         1 UNK         0.0806 
    115 H115       26.3084    0.6907   -9.7494 H         1 UNK         0.3000 
    116 H116       27.1907    0.5215  -12.4361 H         1 UNK         0.0850 
    117 H117       26.8479   -1.9251  -12.1231 H         1 UNK         0.0810 
    118 H118       25.5091   -1.0056  -11.4546 H         1 UNK         0.0810 
    119 H119       26.7200   -1.7044  -10.3846 H         1 UNK         0.0810 
    120 H120       28.9160   -0.2649   -9.3982 H         1 UNK         0.3040 
    121 H121       31.3865   -0.9528  -10.9451 H         1 UNK         0.0766 
    122 H122       32.1400   -2.0338   -8.8554 H         1 UNK         0.0812 
    123 H123       30.6604   -1.5788   -8.0288 H         1 UNK         0.0812 
    124 H124       30.6080   -2.7237   -9.3667 H         1 UNK         0.0812 
    125 H125       30.0490    0.9765   -8.2670 H         1 UNK         0.3205 
    126 H126       30.5906    2.8560   -7.2546 H         1 UNK         0.0754 
    127 H127       31.6766    4.6901   -8.4875 H         1 UNK         0.0769 
    128 H128       30.5625    3.8476   -9.5502 H         1 UNK         0.0769 
    129 H129       32.2994    3.5726   -9.6933 H         1 UNK         0.0769 
    130 H130       32.0670    0.5378   -6.6079 H         1 UNK         0.2981 
    131 H131       34.7909    1.2187   -5.9907 H         1 UNK         0.0541 
    132 H132       35.6724    1.2161   -3.6857 H         1 UNK         0.3459 
    133 H133       34.7471    2.1115   -2.5103 H         1 UNK         0.3459 
    134 H134       34.7347   -0.9299   -4.6585 H         1 UNK         0.0612 
    135 H135       34.2913   -1.0981   -6.3327 H         1 UNK         0.0612 
    136 H136       33.1696   -3.3721   -6.1823 H         1 UNK         0.0624 
    137 H137       33.6746   -3.4808   -4.5073 H         1 UNK         0.0624 
@<TRIPOS>BOND
     1    1    2 1    
     2    1   72 1    
     3    1   73 1    
     4    1   74 1    
     5    2    3 2    
     6    2    4 am   BACKBONE|DICT|INTERRES
     7    4    5 1    
     8    4   75 1    
     9    5    6 1    
    10    5   35 1    
    11    5   76 1    
    12    6    7 1    
    13    6   77 1    
    14    6   78 1    
    15    7    8 1    
    16    8    9 1    
    17    8   79 1    
    18    8   80 1    
    19    9   10 ar   
    20    9   14 ar   
    21   10   11 ar   
    22   10   81 1    
    23   11   12 ar   
    24   11   71 1    
    25   12   13 ar   
    26   12   82 1    
    27   13   14 ar   
    28   13   15 1    
    29   14   83 1    
    30   15   16 1    
    31   15   84 1    
    32   15   85 1    
    33   16   17 1    
    34   17   18 1    
    35   17   86 1    
    36   17   87 1    
    37   18   19 1    
    38   18   37 1    
    39   18   88 1    
    40   19   20 am   BACKBONE|DICT|INTERRES
    41   19   89 1    
    42   20   21 2    
    43   20   22 1    
    44   22   23 1    
    45   22   24 1    
    46   22   90 1    
    47   23   91 1    
    48   23   92 1    
    49   23   93 1    
    50   24   25 am   BACKBONE|DICT|INTERRES
    51   24   94 1    
    52   25   26 2    
    53   25   27 1    
    54   27   28 1    
    55   27   29 1    
    56   27   95 1    
    57   28   96 1    
    58   28   97 1    
    59   28   98 1    
    60   29   30 am   BACKBONE|DICT|INTERRES
    61   29   99 1    
    62   30   31 2    
    63   30   32 1    
    64   32   33 1    
    65   32   34 1    
    66   32  100 1    
    67   33  101 1    
    68   33  102 1    
    69   33  103 1    
    70   34   35 am   BACKBONE|DICT|INTERRES
    71   34  104 1    
    72   35   36 2    
    73   37   38 2    
    74   37   39 am   BACKBONE|DICT|INTERRES
    75   39   40 1    
    76   39  105 1    
    77   40   41 1    
    78   40   42 1    
    79   40  106 1    
    80   41  107 1    
    81   41  108 1    
    82   41  109 1    
    83   42   43 2    
    84   42   44 am   BACKBONE|DICT|INTERRES
    85   44   45 1    
    86   44  110 1    
    87   45   46 1    
    88   45   47 1    
    89   45  111 1    
    90   46  112 1    
    91   46  113 1    
    92   46  114 1    
    93   47   48 2    
    94   47   49 am   BACKBONE|DICT|INTERRES
    95   49   50 1    
    96   49  115 1    
    97   50   51 1    
    98   50   52 1    
    99   50  116 1    
   100   51  117 1    
   101   51  118 1    
   102   51  119 1    
   103   52   53 2    
   104   52   54 am   BACKBONE|DICT|INTERRES
   105   54   55 1    
   106   54  120 1    
   107   55   56 1    
   108   55   57 1    
   109   55  121 1    
   110   56  122 1    
   111   56  123 1    
   112   56  124 1    
   113   57   58 2    
   114   57   59 am   BACKBONE|DICT|INTERRES
   115   59   60 1    
   116   59  125 1    
   117   60   61 1    
   118   60   62 1    
   119   60  126 1    
   120   61  127 1    
   121   61  128 1    
   122   61  129 1    
   123   62   63 2    
   124   62   64 am   BACKBONE|DICT|INTERRES
   125   64   65 1    
   126   64  130 1    
   127   65   66 1    
   128   65   69 1    
   129   65  131 1    
   130   66   67 am   BACKBONE|DICT|INTERRES
   131   66   68 2    
   132   67  132 1    
   133   67  133 1    
   134   69   70 1    
   135   69  134 1    
   136   69  135 1    
   137   70   71 1    
   138   71  136 1    
   139   71  137 1    
@<TRIPOS>SUBSTRUCTURE
     1 UNK         1 GROUP             0       ****    0 ROOT    
