@<TRIPOS>MOLECULE
3R137
137   139    1
SMALL
USER_CHARGES


@<TRIPOS>ATOM
      1 CA         30.1168    1.3071    0.3953 C.3       0 UNK        -0.2020 
      2 C          29.9713   -0.1018   -0.1592 C.2       0 UNK         0.4855 
      3 O          30.9283   -0.6421   -0.7103 O.2       0 UNK        -0.5197 
      4 N          28.7828   -0.6948   -0.0190 N.am      1 UNK        -0.4892 
      5 CA         28.4031   -2.0094   -0.5315 C.3       1 UNK         0.0835 
      6 C6         28.9398   -3.1592    0.3640 C.3       12 UNK        -0.0855 
      7 S7         28.6381   -4.8447   -0.2806 S.3       12 UNK        -0.2931 
      8 C8         30.1792   -5.2174   -1.1777 C.3       12 UNK         0.0378 
      9 C9         30.1909   -4.5707   -2.5546 C.ar      12 UNK        -0.0802 
     10 C10        30.8178   -3.3400   -2.7480 C.ar      12 UNK        -0.0944 
     11 C11        30.8020   -2.7123   -3.9960 C.ar      12 UNK        -0.0787 
     12 C12        30.1750   -3.3560   -5.0727 C.ar      12 UNK        -0.0862 
     13 C13        29.5677   -4.6093   -4.9034 C.ar      12 UNK        -0.0733 
     14 C14        29.5753   -5.2029   -3.6370 C.ar      12 UNK        -0.0832 
     15 C15        28.9349   -5.3778   -6.0651 C.3       12 UNK         0.0240 
     16 S16        28.2120   -4.3498   -7.3857 S.3       12 UNK        -0.2522 
     17 C17        26.7927   -3.5982   -6.5228 C.3       12 UNK        -0.0967 
     18 CA         26.2685   -2.3469   -7.2683 C.3       5 UNK         0.0660 
     19 N          24.9430   -1.9472   -6.8044 N.am      5 UNK        -0.4015 
     20 C          24.0107   -1.3707   -7.5756 C.2       4 UNK         0.4946 
     21 O          24.1292   -1.2069   -8.7902 O.2       4 UNK        -0.5353 
     22 CA         22.7232   -0.8858   -6.8829 C.3       4 UNK         0.0277 
     23 CB         21.6172   -1.9468   -7.0033 C.3       4 UNK        -0.1981 
     24 N          22.9057   -0.5360   -5.4714 N.am      4 UNK        -0.4209 
     25 C          23.6655    0.4759   -5.0292 C.2       3 UNK         0.4942 
     26 O          24.2875    1.2416   -5.7647 O.2       3 UNK        -0.5208 
     27 CA         23.8023    0.6174   -3.5041 C.3       3 UNK         0.0250 
     28 CB         22.6232    1.4185   -2.9293 C.3       3 UNK        -0.1990 
     29 N          23.9355   -0.6546   -2.7790 N.am      3 UNK        -0.4232 
     30 C          24.8605   -1.5912   -3.0307 C.2       2 UNK         0.4993 
     31 O          25.6334   -1.5571   -3.9905 O.2       2 UNK        -0.5286 
     32 CA         24.9658   -2.7682   -2.0535 C.3       2 UNK         0.0209 
     33 CB         24.5973   -4.0882   -2.7506 C.3       2 UNK        -0.1931 
     34 N          26.3441   -2.8434   -1.5720 N.am      2 UNK        -0.4546 
     35 C          26.8721   -1.9914   -0.6854 C.2       1 UNK         0.5154 
     36 O          26.2009   -1.1852   -0.0316 O.2       1 UNK        -0.5181 
     37 C          27.2340   -1.1565   -7.1495 C.2       5 UNK         0.5014 
     38 O          27.8734   -0.8008   -8.1373 O.2       5 UNK        -0.5248 
     39 N          27.3044   -0.5453   -5.9587 N.am      6 UNK        -0.4434 
     40 CA         28.2377    0.5293   -5.6101 C.3       6 UNK         0.0363 
     41 CB         28.0794    0.8710   -4.1197 C.3       6 UNK        -0.1936 
     42 C          28.1188    1.7946   -6.4790 C.2       6 UNK         0.5081 
     43 O          29.1238    2.4735   -6.6863 O.2       6 UNK        -0.5248 
     44 N          26.9116    2.0880   -6.9810 N.am      7 UNK        -0.4718 
     45 CA         26.6591    3.1865   -7.9168 C.3       7 UNK         0.0273 
     46 CB         25.1784    3.5899   -7.8233 C.3       7 UNK        -0.1935 
     47 C          27.0254    2.8535   -9.3767 C.2       7 UNK         0.5018 
     48 O          27.1446    3.7817  -10.1782 O.2       7 UNK        -0.5186 
     49 N          27.1586    1.5629   -9.7131 N.am      8 UNK        -0.4240 
     50 CA         27.3905    1.0761  -11.0753 C.3       8 UNK         0.0235 
     51 CB         26.4297   -0.0905  -11.3630 C.3       8 UNK        -0.2000 
     52 C          28.8461    0.6379  -11.2894 C.2       8 UNK         0.4941 
     53 O          29.4356    0.9811  -12.3156 O.2       8 UNK        -0.5273 
     54 N          29.3930   -0.1250  -10.3357 N.am      9 UNK        -0.4262 
     55 CA         30.7660   -0.6265  -10.3378 C.3       9 UNK         0.0264 
     56 CB         30.8609   -1.7895   -9.3351 C.3       9 UNK        -0.1955 
     57 C          31.7745    0.4764   -9.9809 C.2       9 UNK         0.5031 
     58 O          31.4154    1.4656   -9.3370 O.2       9 UNK        -0.5390 
     59 N          33.0432    0.2625  -10.3529 N.am      10 UNK        -0.4204 
     60 CA         34.1766    1.1519  -10.0677 C.3       10 UNK         0.0237 
     61 CB         35.2932    0.8801  -11.0943 C.3       10 UNK        -0.1985 
     62 C          34.6709    1.0434   -8.6075 C.2       10 UNK         0.4970 
     63 O          35.8694    0.8795   -8.3700 O.2       10 UNK        -0.4914 
     64 N          33.7347    1.1181   -7.6577 N.am      11 UNK        -0.4285 
     65 CA         33.9734    1.1048   -6.2106 C.3       11 UNK         0.1007 
     66 C          34.6298    2.4210   -5.7120 C.2       11 UNK         0.5703 
     67 N          35.4168    2.3536   -4.6466 N.am      11 UNK        -0.7361 
     68 O          34.4081    3.5026   -6.2547 O.2       11 UNK        -0.4986 
     69 C69        32.6611    0.8083   -5.4417 C.3       12 UNK        -0.0947 
     70 S70        32.0442   -0.8777   -5.7678 S.3       12 UNK        -0.2240 
     71 C71        31.4332   -1.3248   -4.1101 C.3       12 UNK         0.0194 
     72 H72        30.3828    1.9983   -0.4041 H         1 UNK         0.0906 
     73 H73        29.1956    1.6612    0.8579 H         1 UNK         0.0906 
     74 H74        30.9060    1.3344    1.1463 H         1 UNK         0.0906 
     75 H75        28.0029   -0.2021    0.4034 H         1 UNK         0.3140 
     76 H76        28.8172   -2.1030   -1.5355 H         1 UNK         0.1085 
     77 H77        28.4955   -3.0939    1.3588 H         1 UNK         0.0836 
     78 H78        30.0131   -3.0377    0.5172 H         1 UNK         0.0836 
     79 H79        30.2691   -6.2996   -1.2838 H         1 UNK         0.0731 
     80 H80        31.0425   -4.9005   -0.5903 H         1 UNK         0.0731 
     81 H81        31.2970   -2.8534   -1.9098 H         1 UNK         0.1312 
     82 H82        30.1612   -2.8840   -6.0445 H         1 UNK         0.1406 
     83 H83        29.1047   -6.1661   -3.4906 H         1 UNK         0.1631 
     84 H84        28.1580   -6.0494   -5.6959 H         1 UNK         0.0717 
     85 H85        29.7029   -6.0119   -6.5095 H         1 UNK         0.0717 
     86 H86        26.0078   -4.3541   -6.4656 H         1 UNK         0.0934 
     87 H87        27.0619   -3.3642   -5.4908 H         1 UNK         0.0934 
     88 H88        26.1962   -2.6039   -8.3279 H         1 UNK         0.0739 
     89 H89        24.8002   -1.9724   -5.8016 H         1 UNK         0.3093 
     90 H90        22.3937    0.0140   -7.4072 H         1 UNK         0.0818 
     91 H91        20.6722   -1.5840   -6.5984 H         1 UNK         0.0819 
     92 H92        21.4400   -2.2081   -8.0477 H         1 UNK         0.0819 
     93 H93        21.8788   -2.8661   -6.4778 H         1 UNK         0.0819 
     94 H94        22.4371   -1.1156   -4.7902 H         1 UNK         0.3041 
     95 H95        24.7155    1.1858   -3.3179 H         1 UNK         0.0784 
     96 H96        22.5142    2.3753   -3.4425 H         1 UNK         0.0793 
     97 H97        21.6790    0.8827   -3.0346 H         1 UNK         0.0793 
     98 H98        22.7696    1.6372   -1.8713 H         1 UNK         0.0793 
     99 H99        23.3438   -0.7672   -1.9680 H         1 UNK         0.3024 
    100 H100       24.2933   -2.6128   -1.2066 H         1 UNK         0.1171 
    101 H101       23.5701   -4.0631   -3.1167 H         1 UNK         0.0786 
    102 H102       24.6761   -4.9322   -2.0650 H         1 UNK         0.0786 
    103 H103       25.2438   -4.2919   -3.6056 H         1 UNK         0.0786 
    104 H104       26.9613   -3.4733   -2.0649 H         1 UNK         0.2977 
    105 H105       26.7156   -0.8939   -5.2017 H         1 UNK         0.3127 
    106 H106       29.2428    0.1345   -5.7646 H         1 UNK         0.0770 
    107 H107       27.0868    1.2669   -3.9040 H         1 UNK         0.0814 
    108 H108       28.8072    1.6232   -3.8125 H         1 UNK         0.0814 
    109 H109       28.2337   -0.0063   -3.4909 H         1 UNK         0.0814 
    110 H110       26.1107    1.5293   -6.7016 H         1 UNK         0.2983 
    111 H111       27.2626    4.0472   -7.6197 H         1 UNK         0.0947 
    112 H112       24.9598    4.4367   -8.4753 H         1 UNK         0.0806 
    113 H113       24.9110    3.8852   -6.8085 H         1 UNK         0.0806 
    114 H114       24.5195    2.7717   -8.1176 H         1 UNK         0.0806 
    115 H115       27.1316    0.8618   -8.9804 H         1 UNK         0.3000 
    116 H116       27.1757    1.8658  -11.7986 H         1 UNK         0.0850 
    117 H117       26.5751   -0.4778  -12.3723 H         1 UNK         0.0810 
    118 H118       25.3895    0.2260  -11.2830 H         1 UNK         0.0810 
    119 H119       26.5760   -0.9197  -10.6693 H         1 UNK         0.0810 
    120 H120       28.8391   -0.3456   -9.5078 H         1 UNK         0.3040 
    121 H121       30.9977   -1.0010  -11.3371 H         1 UNK         0.0766 
    122 H122       30.1845   -2.6013   -9.6040 H         1 UNK         0.0812 
    123 H123       30.6021   -1.4676   -8.3258 H         1 UNK         0.0812 
    124 H124       31.8684   -2.2053   -9.2971 H         1 UNK         0.0812 
    125 H125       33.2636   -0.5960  -10.8378 H         1 UNK         0.3205 
    126 H126       33.8468    2.1835  -10.2086 H         1 UNK         0.0754 
    127 H127       36.1287    1.5680  -10.9566 H         1 UNK         0.0769 
    128 H128       34.9349    1.0134  -12.1153 H         1 UNK         0.0769 
    129 H129       35.6863   -0.1335  -11.0051 H         1 UNK         0.0769 
    130 H130       32.7780    1.2839   -7.9549 H         1 UNK         0.2981 
    131 H131       34.6770    0.2953   -6.0051 H         1 UNK         0.0541 
    132 H132       35.5989    1.4751   -4.1867 H         1 UNK         0.3459 
    133 H133       35.8428    3.1984   -4.2986 H         1 UNK         0.3459 
    134 H134       31.8812    1.5233   -5.7116 H         1 UNK         0.0612 
    135 H135       32.8191    0.9200   -4.3674 H         1 UNK         0.0612 
    136 H136       32.2690   -1.2486   -3.4125 H         1 UNK         0.0624 
    137 H137       30.6979   -0.5852   -3.7926 H         1 UNK         0.0624 
@<TRIPOS>BOND
     1    1    2 1    
     2    1   72 1    
     3    1   73 1    
     4    1   74 1    
     5    2    3 2    
     6    2    4 am   BACKBONE|DICT|INTERRES
     7    4    5 1    
     8    4   75 1    
     9    5    6 1    
    10    5   35 1    
    11    5   76 1    
    12    6    7 1    
    13    6   77 1    
    14    6   78 1    
    15    7    8 1    
    16    8    9 1    
    17    8   79 1    
    18    8   80 1    
    19    9   10 ar   
    20    9   14 ar   
    21   10   11 ar   
    22   10   81 1    
    23   11   12 ar   
    24   11   71 1    
    25   12   13 ar   
    26   12   82 1    
    27   13   14 ar   
    28   13   15 1    
    29   14   83 1    
    30   15   16 1    
    31   15   84 1    
    32   15   85 1    
    33   16   17 1    
    34   17   18 1    
    35   17   86 1    
    36   17   87 1    
    37   18   19 1    
    38   18   37 1    
    39   18   88 1    
    40   19   20 am   BACKBONE|DICT|INTERRES
    41   19   89 1    
    42   20   21 2    
    43   20   22 1    
    44   22   23 1    
    45   22   24 1    
    46   22   90 1    
    47   23   91 1    
    48   23   92 1    
    49   23   93 1    
    50   24   25 am   BACKBONE|DICT|INTERRES
    51   24   94 1    
    52   25   26 2    
    53   25   27 1    
    54   27   28 1    
    55   27   29 1    
    56   27   95 1    
    57   28   96 1    
    58   28   97 1    
    59   28   98 1    
    60   29   30 am   BACKBONE|DICT|INTERRES
    61   29   99 1    
    62   30   31 2    
    63   30   32 1    
    64   32   33 1    
    65   32   34 1    
    66   32  100 1    
    67   33  101 1    
    68   33  102 1    
    69   33  103 1    
    70   34   35 am   BACKBONE|DICT|INTERRES
    71   34  104 1    
    72   35   36 2    
    73   37   38 2    
    74   37   39 am   BACKBONE|DICT|INTERRES
    75   39   40 1    
    76   39  105 1    
    77   40   41 1    
    78   40   42 1    
    79   40  106 1    
    80   41  107 1    
    81   41  108 1    
    82   41  109 1    
    83   42   43 2    
    84   42   44 am   BACKBONE|DICT|INTERRES
    85   44   45 1    
    86   44  110 1    
    87   45   46 1    
    88   45   47 1    
    89   45  111 1    
    90   46  112 1    
    91   46  113 1    
    92   46  114 1    
    93   47   48 2    
    94   47   49 am   BACKBONE|DICT|INTERRES
    95   49   50 1    
    96   49  115 1    
    97   50   51 1    
    98   50   52 1    
    99   50  116 1    
   100   51  117 1    
   101   51  118 1    
   102   51  119 1    
   103   52   53 2    
   104   52   54 am   BACKBONE|DICT|INTERRES
   105   54   55 1    
   106   54  120 1    
   107   55   56 1    
   108   55   57 1    
   109   55  121 1    
   110   56  122 1    
   111   56  123 1    
   112   56  124 1    
   113   57   58 2    
   114   57   59 am   BACKBONE|DICT|INTERRES
   115   59   60 1    
   116   59  125 1    
   117   60   61 1    
   118   60   62 1    
   119   60  126 1    
   120   61  127 1    
   121   61  128 1    
   122   61  129 1    
   123   62   63 2    
   124   62   64 am   BACKBONE|DICT|INTERRES
   125   64   65 1    
   126   64  130 1    
   127   65   66 1    
   128   65   69 1    
   129   65  131 1    
   130   66   67 am   BACKBONE|DICT|INTERRES
   131   66   68 2    
   132   67  132 1    
   133   67  133 1    
   134   69   70 1    
   135   69  134 1    
   136   69  135 1    
   137   70   71 1    
   138   71  136 1    
   139   71  137 1    
@<TRIPOS>SUBSTRUCTURE
     1 UNK         1 GROUP             0       ****    0 ROOT    
