@<TRIPOS>MOLECULE
3R137
137   139    1
SMALL
USER_CHARGES


@<TRIPOS>ATOM
      1 CA         30.1726   -0.1284   -3.2273 C.3       0 UNK        -0.2020 
      2 C          29.5002   -0.8391   -2.0617 C.2       0 UNK         0.4855 
      3 O          29.1615   -0.1963   -1.0684 O.2       0 UNK        -0.5197 
      4 N          29.2985   -2.1578   -2.1895 N.am      1 UNK        -0.4892 
      5 CA         28.6779   -3.0531   -1.1996 C.3       1 UNK         0.0835 
      6 C6         29.5407   -3.2857    0.0704 C.3       12 UNK        -0.0855 
      7 S7         31.2713   -3.7955   -0.2445 S.3       12 UNK        -0.2931 
      8 C8         31.1198   -5.2954   -1.2771 C.3       12 UNK         0.0378 
      9 C9         31.2435   -4.9702   -2.7613 C.ar      12 UNK        -0.0802 
     10 C10        32.4771   -4.5739   -3.2858 C.ar      12 UNK        -0.0944 
     11 C11        32.6056   -4.2412   -4.6381 C.ar      12 UNK        -0.0787 
     12 C12        31.4771   -4.2851   -5.4647 C.ar      12 UNK        -0.0862 
     13 C13        30.2414   -4.7030   -4.9598 C.ar      12 UNK        -0.0733 
     14 C14        30.1418   -5.0751   -3.6157 C.ar      12 UNK        -0.0832 
     15 C15        29.0239   -4.7987   -5.8730 C.3       12 UNK         0.0240 
     16 S16        27.5922   -3.8660   -5.2347 S.3       12 UNK        -0.2522 
     17 C17        28.0540   -2.1411   -5.6060 C.3       12 UNK        -0.0967 
     18 CA         27.2027   -1.5154   -6.7402 C.3       5 UNK         0.0660 
     19 N          25.7607   -1.6641   -6.5330 N.am      5 UNK        -0.4015 
     20 C          24.8391   -1.5848   -7.5029 C.2       4 UNK         0.4946 
     21 O          25.1091   -1.4466   -8.6960 O.2       4 UNK        -0.5353 
     22 CA         23.3623   -1.6535   -7.0716 C.3       4 UNK         0.0277 
     23 CB         22.8704   -3.1098   -7.0748 C.3       4 UNK        -0.1981 
     24 N          23.1116   -1.0582   -5.7555 N.am      4 UNK        -0.4209 
     25 C          23.2641    0.2429   -5.4689 C.2       3 UNK         0.4942 
     26 O          23.5859    1.0913   -6.2986 O.2       3 UNK        -0.5208 
     27 CA         23.0847    0.6614   -3.9983 C.3       3 UNK         0.0250 
     28 CB         21.6115    0.9918   -3.7113 C.3       3 UNK        -0.1990 
     29 N          23.5655   -0.3279   -3.0256 N.am      3 UNK        -0.4232 
     30 C          24.8030   -0.8418   -2.9869 C.2       2 UNK         0.4993 
     31 O          25.6911   -0.5588   -3.7987 O.2       2 UNK        -0.5286 
     32 CA         25.0724   -1.8820   -1.8935 C.3       2 UNK         0.0209 
     33 CB         24.2287   -3.1537   -2.1120 C.3       2 UNK        -0.1931 
     34 N          26.4876   -2.2330   -1.9192 N.am      2 UNK        -0.4546 
     35 C          27.2070   -2.6938   -0.8908 C.2       1 UNK         0.5154 
     36 O          26.7453   -2.8642    0.2396 O.2       1 UNK        -0.5181 
     37 C          27.5500   -0.0270   -6.9089 C.2       5 UNK         0.5014 
     38 O          28.3019    0.3178   -7.8211 O.2       5 UNK        -0.5248 
     39 N          26.9820    0.8245   -6.0389 N.am      6 UNK        -0.4434 
     40 CA         27.1456    2.2829   -6.0394 C.3       6 UNK         0.0363 
     41 CB         26.4323    2.8813   -4.8182 C.3       6 UNK        -0.1936 
     42 C          26.6633    2.9578   -7.3352 C.2       6 UNK         0.5081 
     43 O          27.2962    3.9077   -7.7941 O.2       6 UNK        -0.5248 
     44 N          25.5730    2.4396   -7.9156 N.am      7 UNK        -0.4718 
     45 CA         25.0376    2.8517   -9.2163 C.3       7 UNK         0.0273 
     46 CB         23.6068    2.3064   -9.3580 C.3       7 UNK        -0.1935 
     47 C          25.8996    2.4059  -10.4141 C.2       7 UNK         0.5018 
     48 O          25.7117    2.9369  -11.5101 O.2       7 UNK        -0.5186 
     49 N          26.8026    1.4411  -10.1980 N.am      8 UNK        -0.4240 
     50 CA         27.7418    0.9161  -11.1832 C.3       8 UNK         0.0235 
     51 CB         27.6946   -0.6265  -11.1410 C.3       8 UNK        -0.2000 
     52 C          29.1328    1.5190  -10.9152 C.2       8 UNK         0.4941 
     53 O          29.2779    2.7418  -10.9546 O.2       8 UNK        -0.5273 
     54 N          30.1367    0.6663  -10.6711 N.am      9 UNK        -0.4262 
     55 CA         31.5349    1.0532  -10.4621 C.3       9 UNK         0.0264 
     56 CB         32.4315   -0.1635  -10.7501 C.3       9 UNK        -0.1955 
     57 C          31.8383    1.6151   -9.0609 C.2       9 UNK         0.5031 
     58 O          32.9262    2.1628   -8.8700 O.2       9 UNK        -0.5390 
     59 N          30.9256    1.4242   -8.0934 N.am      10 UNK        -0.4204 
     60 CA         31.0279    1.8312   -6.6827 C.3       10 UNK         0.0237 
     61 CB         30.9456    3.3670   -6.5579 C.3       10 UNK        -0.1985 
     62 C          32.2396    1.2440   -5.9323 C.2       10 UNK         0.4970 
     63 O          32.6546    1.8042   -4.9168 O.2       10 UNK        -0.4914 
     64 N          32.7805    0.1295   -6.4440 N.am      11 UNK        -0.4285 
     65 CA         34.0203   -0.5112   -5.9860 C.3       11 UNK         0.1007 
     66 C          35.2995    0.3684   -6.1691 C.2       11 UNK         0.5703 
     67 N          35.2944    1.3536   -7.0622 N.am      11 UNK        -0.7361 
     68 O          36.3199    0.1472   -5.5218 O.2       11 UNK        -0.4986 
     69 C69        33.8507   -1.1380   -4.5707 C.3       12 UNK        -0.0947 
     70 S70        34.8811   -2.6161   -4.2996 S.3       12 UNK        -0.2240 
     71 C71        33.9702   -3.8972   -5.2260 C.3       12 UNK         0.0194 
     72 H72        31.0744    0.3800   -2.8863 H         1 UNK         0.0906 
     73 H73        30.4565   -0.8202   -4.0196 H         1 UNK         0.0906 
     74 H74        29.5000    0.6179   -3.6499 H         1 UNK         0.0906 
     75 H75        29.6430   -2.6273   -3.0160 H         1 UNK         0.3140 
     76 H76        28.5812   -4.0189   -1.6862 H         1 UNK         0.1085 
     77 H77        29.5677   -2.3755    0.6720 H         1 UNK         0.0836 
     78 H78        29.0846   -4.0487    0.7041 H         1 UNK         0.0836 
     79 H79        31.9169   -5.9879   -1.0024 H         1 UNK         0.0731 
     80 H80        30.1837   -5.8108   -1.0569 H         1 UNK         0.0731 
     81 H81        33.3415   -4.5274   -2.6372 H         1 UNK         0.1312 
     82 H82        31.5686   -4.0280   -6.5112 H         1 UNK         0.1406 
     83 H83        29.1949   -5.4377   -3.2410 H         1 UNK         0.1631 
     84 H84        28.7417   -5.8482   -5.9658 H         1 UNK         0.0717 
     85 H85        29.2559   -4.4533   -6.8818 H         1 UNK         0.0717 
     86 H86        27.9446   -1.5696   -4.6848 H         1 UNK         0.0934 
     87 H87        29.1143   -2.0960   -5.8624 H         1 UNK         0.0934 
     88 H88        27.4655   -2.0237   -7.6707 H         1 UNK         0.0739 
     89 H89        25.4579   -1.7262   -5.5701 H         1 UNK         0.3093 
     90 H90        22.7809   -1.0930   -7.8071 H         1 UNK         0.0818 
     91 H91        21.8045   -3.1701   -6.8539 H         1 UNK         0.0819 
     92 H92        23.0228   -3.5697   -8.0524 H         1 UNK         0.0819 
     93 H93        23.4019   -3.7190   -6.3424 H         1 UNK         0.0819 
     94 H94        22.8360   -1.6836   -5.0127 H         1 UNK         0.3041 
     95 H95        23.6685    1.5698   -3.8443 H         1 UNK         0.0784 
     96 H96        21.2369    1.7417   -4.4098 H         1 UNK         0.0793 
     97 H97        20.9730    0.1123   -3.8041 H         1 UNK         0.0793 
     98 H98        21.4831    1.3966   -2.7072 H         1 UNK         0.0793 
     99 H99        22.8999   -0.6224   -2.3251 H         1 UNK         0.3024 
    100 H100       24.8277   -1.4307   -0.9291 H         1 UNK         0.1171 
    101 H101       23.1603   -2.9387   -2.0759 H         1 UNK         0.0786 
    102 H102       24.4276   -3.8977   -1.3404 H         1 UNK         0.0786 
    103 H103       24.4396   -3.6144   -3.0783 H         1 UNK         0.0786 
    104 H104       26.9495   -2.0370   -2.7974 H         1 UNK         0.2977 
    105 H105       26.3991    0.4356   -5.3015 H         1 UNK         0.3127 
    106 H106       28.2084    2.4961   -5.9366 H         1 UNK         0.0770 
    107 H107       25.3512    2.7692   -4.8916 H         1 UNK         0.0814 
    108 H108       26.6408    3.9485   -4.7329 H         1 UNK         0.0814 
    109 H109       26.7598    2.4101   -3.8911 H         1 UNK         0.0814 
    110 H110       25.0496    1.7256   -7.4150 H         1 UNK         0.2983 
    111 H111       24.9942    3.9427   -9.2373 H         1 UNK         0.0947 
    112 H112       23.1622    2.6088  -10.3071 H         1 UNK         0.0806 
    113 H113       22.9598    2.6801   -8.5642 H         1 UNK         0.0806 
    114 H114       23.5880    1.2162   -9.3193 H         1 UNK         0.0806 
    115 H115       26.9325    1.1093   -9.2499 H         1 UNK         0.3000 
    116 H116       27.4514    1.2296  -12.1880 H         1 UNK         0.0850 
    117 H117       28.3508   -1.0672  -11.8927 H         1 UNK         0.0810 
    118 H118       26.6873   -0.9870  -11.3520 H         1 UNK         0.0810 
    119 H119       27.9782   -1.0237  -10.1657 H         1 UNK         0.0810 
    120 H120       29.9286   -0.3216  -10.6471 H         1 UNK         0.3040 
    121 H121       31.7866    1.8363  -11.1807 H         1 UNK         0.0766 
    122 H122       33.4866    0.0912  -10.6384 H         1 UNK         0.0812 
    123 H123       32.2964   -0.5229  -11.7705 H         1 UNK         0.0812 
    124 H124       32.2230   -0.9916  -10.0716 H         1 UNK         0.0812 
    125 H125       30.0516    0.9609   -8.3337 H         1 UNK         0.3205 
    126 H126       30.1597    1.4065   -6.1822 H         1 UNK         0.0754 
    127 H127       30.8505    3.6737   -5.5155 H         1 UNK         0.0769 
    128 H128       30.0808    3.7624   -7.0909 H         1 UNK         0.0769 
    129 H129       31.8355    3.8515   -6.9610 H         1 UNK         0.0769 
    130 H130       32.3755   -0.2505   -7.2857 H         1 UNK         0.2981 
    131 H131       34.1637   -1.3268   -6.6937 H         1 UNK         0.0541 
    132 H132       34.4672    1.5617   -7.6106 H         1 UNK         0.3459 
    133 H133       36.1256    1.9103   -7.1811 H         1 UNK         0.3459 
    134 H134       32.8144   -1.4345   -4.4052 H         1 UNK         0.0612 
    135 H135       34.0728   -0.4049   -3.7937 H         1 UNK         0.0612 
    136 H136       33.8781   -3.5891   -6.2678 H         1 UNK         0.0624 
    137 H137       34.5749   -4.8047   -5.2337 H         1 UNK         0.0624 
@<TRIPOS>BOND
     1    1    2 1    
     2    1   72 1    
     3    1   73 1    
     4    1   74 1    
     5    2    3 2    
     6    2    4 am   BACKBONE|DICT|INTERRES
     7    4    5 1    
     8    4   75 1    
     9    5    6 1    
    10    5   35 1    
    11    5   76 1    
    12    6    7 1    
    13    6   77 1    
    14    6   78 1    
    15    7    8 1    
    16    8    9 1    
    17    8   79 1    
    18    8   80 1    
    19    9   10 ar   
    20    9   14 ar   
    21   10   11 ar   
    22   10   81 1    
    23   11   12 ar   
    24   11   71 1    
    25   12   13 ar   
    26   12   82 1    
    27   13   14 ar   
    28   13   15 1    
    29   14   83 1    
    30   15   16 1    
    31   15   84 1    
    32   15   85 1    
    33   16   17 1    
    34   17   18 1    
    35   17   86 1    
    36   17   87 1    
    37   18   19 1    
    38   18   37 1    
    39   18   88 1    
    40   19   20 am   BACKBONE|DICT|INTERRES
    41   19   89 1    
    42   20   21 2    
    43   20   22 1    
    44   22   23 1    
    45   22   24 1    
    46   22   90 1    
    47   23   91 1    
    48   23   92 1    
    49   23   93 1    
    50   24   25 am   BACKBONE|DICT|INTERRES
    51   24   94 1    
    52   25   26 2    
    53   25   27 1    
    54   27   28 1    
    55   27   29 1    
    56   27   95 1    
    57   28   96 1    
    58   28   97 1    
    59   28   98 1    
    60   29   30 am   BACKBONE|DICT|INTERRES
    61   29   99 1    
    62   30   31 2    
    63   30   32 1    
    64   32   33 1    
    65   32   34 1    
    66   32  100 1    
    67   33  101 1    
    68   33  102 1    
    69   33  103 1    
    70   34   35 am   BACKBONE|DICT|INTERRES
    71   34  104 1    
    72   35   36 2    
    73   37   38 2    
    74   37   39 am   BACKBONE|DICT|INTERRES
    75   39   40 1    
    76   39  105 1    
    77   40   41 1    
    78   40   42 1    
    79   40  106 1    
    80   41  107 1    
    81   41  108 1    
    82   41  109 1    
    83   42   43 2    
    84   42   44 am   BACKBONE|DICT|INTERRES
    85   44   45 1    
    86   44  110 1    
    87   45   46 1    
    88   45   47 1    
    89   45  111 1    
    90   46  112 1    
    91   46  113 1    
    92   46  114 1    
    93   47   48 2    
    94   47   49 am   BACKBONE|DICT|INTERRES
    95   49   50 1    
    96   49  115 1    
    97   50   51 1    
    98   50   52 1    
    99   50  116 1    
   100   51  117 1    
   101   51  118 1    
   102   51  119 1    
   103   52   53 2    
   104   52   54 am   BACKBONE|DICT|INTERRES
   105   54   55 1    
   106   54  120 1    
   107   55   56 1    
   108   55   57 1    
   109   55  121 1    
   110   56  122 1    
   111   56  123 1    
   112   56  124 1    
   113   57   58 2    
   114   57   59 am   BACKBONE|DICT|INTERRES
   115   59   60 1    
   116   59  125 1    
   117   60   61 1    
   118   60   62 1    
   119   60  126 1    
   120   61  127 1    
   121   61  128 1    
   122   61  129 1    
   123   62   63 2    
   124   62   64 am   BACKBONE|DICT|INTERRES
   125   64   65 1    
   126   64  130 1    
   127   65   66 1    
   128   65   69 1    
   129   65  131 1    
   130   66   67 am   BACKBONE|DICT|INTERRES
   131   66   68 2    
   132   67  132 1    
   133   67  133 1    
   134   69   70 1    
   135   69  134 1    
   136   69  135 1    
   137   70   71 1    
   138   71  136 1    
   139   71  137 1    
@<TRIPOS>SUBSTRUCTURE
     1 UNK         1 GROUP             0       ****    0 ROOT    
