@<TRIPOS>MOLECULE
3R137
137   139    1
SMALL
USER_CHARGES


@<TRIPOS>ATOM
      1 CA         30.9892    0.6017   -2.3933 C.3       0 UNK        -0.2020 
      2 C          29.9320   -0.4806   -2.5425 C.2       0 UNK         0.4855 
      3 O          29.1589   -0.4584   -3.4974 O.2       0 UNK        -0.5197 
      4 N          29.8582   -1.4058   -1.5765 N.am      1 UNK        -0.4892 
      5 CA         28.9285   -2.5491   -1.5206 C.3       1 UNK         0.0835 
      6 C6         29.4859   -3.6421   -0.5632 C.3       12 UNK        -0.0855 
      7 S7         28.9375   -5.3369   -0.9722 S.3       12 UNK        -0.2931 
      8 C8         30.3923   -6.0184   -1.8313 C.3       12 UNK         0.0378 
      9 C9         30.6223   -5.3378   -3.1719 C.ar      12 UNK        -0.0802 
     10 C10        31.7300   -4.5063   -3.3652 C.ar      12 UNK        -0.0944 
     11 C11        31.9318   -3.8696   -4.5936 C.ar      12 UNK        -0.0787 
     12 C12        31.0154   -4.0719   -5.6302 C.ar      12 UNK        -0.0862 
     13 C13        29.8875   -4.8750   -5.4384 C.ar      12 UNK        -0.0733 
     14 C14        29.7102   -5.5255   -4.2146 C.ar      12 UNK        -0.0832 
     15 C15        28.8390   -5.0032   -6.5362 C.3       12 UNK         0.0240 
     16 S16        27.2363   -4.2821   -6.0399 S.3       12 UNK        -0.2522 
     17 C17        27.6769   -2.5388   -5.7245 C.3       12 UNK        -0.0967 
     18 CA         27.0187   -1.5706   -6.7326 C.3       5 UNK         0.0660 
     19 N          25.5509   -1.5758   -6.6568 N.am      5 UNK        -0.4015 
     20 C          24.7379   -0.9153   -7.4968 C.2       4 UNK         0.4946 
     21 O          25.1422   -0.1715   -8.3909 O.2       4 UNK        -0.5353 
     22 CA         23.2212   -1.0843   -7.3095 C.3       4 UNK         0.0277 
     23 CB         22.7106   -2.2692   -8.1445 C.3       4 UNK        -0.1981 
     24 N          22.8133   -1.2547   -5.9137 N.am      4 UNK        -0.4209 
     25 C          22.9390   -0.3175   -4.9643 C.2       3 UNK         0.4942 
     26 O          23.4030    0.8055   -5.1729 O.2       3 UNK        -0.5208 
     27 CA         22.4931   -0.6855   -3.5337 C.3       3 UNK         0.0250 
     28 CB         22.0002   -2.1426   -3.3691 C.3       3 UNK        -0.1990 
     29 N          23.5453   -0.3853   -2.5551 N.am      3 UNK        -0.4232 
     30 C          24.8004   -0.8587   -2.5647 C.2       2 UNK         0.4993 
     31 O          25.2230   -1.6536   -3.4089 O.2       2 UNK        -0.5286 
     32 CA         25.7425   -0.3002   -1.4816 C.3       2 UNK         0.0209 
     33 CB         25.1422   -0.3770   -0.0592 C.3       2 UNK        -0.1931 
     34 N          27.0767   -0.9092   -1.5460 N.am      2 UNK        -0.4546 
     35 C          27.4579   -2.1488   -1.2027 C.2       1 UNK         0.5154 
     36 O          26.7105   -2.9516   -0.6411 O.2       1 UNK        -0.5181 
     37 C          27.6212   -0.1621   -6.5841 C.2       5 UNK         0.5014 
     38 O          28.6112    0.1352   -7.2537 O.2       5 UNK        -0.5248 
     39 N          26.9873    0.6984   -5.7756 N.am      6 UNK        -0.4434 
     40 CA         27.3882    2.0929   -5.5757 C.3       6 UNK         0.0363 
     41 CB         26.5367    2.7082   -4.4549 C.3       6 UNK        -0.1936 
     42 C          27.3125    2.9533   -6.8525 C.2       6 UNK         0.5081 
     43 O          28.0326    3.9475   -6.9431 O.2       6 UNK        -0.5248 
     44 N          26.4635    2.5574   -7.8106 N.am      7 UNK        -0.4718 
     45 CA         26.3453    3.1841   -9.1257 C.3       7 UNK         0.0273 
     46 CB         24.8569    3.3304   -9.4846 C.3       7 UNK        -0.1935 
     47 C          27.0805    2.3681  -10.1994 C.2       7 UNK         0.5018 
     48 O          27.7949    2.9527  -11.0142 O.2       7 UNK        -0.5186 
     49 N          26.8732    1.0434  -10.2028 N.am      8 UNK        -0.4240 
     50 CA         27.3593    0.1295  -11.2378 C.3       8 UNK         0.0235 
     51 CB         26.5827   -1.1953  -11.1540 C.3       8 UNK        -0.2000 
     52 C          28.8710   -0.1354  -11.1815 C.2       8 UNK         0.4941 
     53 O          29.4933   -0.2425  -12.2394 O.2       8 UNK        -0.5273 
     54 N          29.4264   -0.2616   -9.9697 N.am      9 UNK        -0.4262 
     55 CA         30.8377   -0.5726   -9.7364 C.3       9 UNK         0.0264 
     56 CB         30.9499   -1.7951   -8.8087 C.3       9 UNK        -0.1955 
     57 C          31.5851    0.6225   -9.1351 C.2       9 UNK         0.5031 
     58 O          32.7282    0.8648   -9.5242 O.2       9 UNK        -0.5390 
     59 N          30.9577    1.3189   -8.1744 N.am      10 UNK        -0.4204 
     60 CA         31.4550    2.4536   -7.3761 C.3       10 UNK         0.0237 
     61 CB         31.8197    3.6579   -8.2652 C.3       10 UNK        -0.1985 
     62 C          32.5988    2.1050   -6.4003 C.2       10 UNK         0.4970 
     63 O          32.6393    2.6693   -5.3062 O.2       10 UNK        -0.4914 
     64 N          33.4641    1.1617   -6.7894 N.am      11 UNK        -0.4285 
     65 CA         34.5359    0.5396   -5.9979 C.3       11 UNK         0.1007 
     66 C          35.7217    1.5070   -5.7012 C.2       11 UNK         0.5703 
     67 N          36.6229    1.1494   -4.7950 N.am      11 UNK        -0.7361 
     68 O          35.8683    2.5617   -6.3176 O.2       11 UNK        -0.4986 
     69 C69        34.0092   -0.2105   -4.7344 C.3       12 UNK        -0.0947 
     70 S70        32.5251   -1.2299   -5.0464 S.3       12 UNK        -0.2240 
     71 C71        33.1133   -2.9296   -4.7905 C.3       12 UNK         0.0194 
     72 H72        30.6119    1.4179   -1.7782 H         1 UNK         0.0906 
     73 H73        31.8967    0.2087   -1.9355 H         1 UNK         0.0906 
     74 H74        31.2549    1.0085   -3.3691 H         1 UNK         0.0906 
     75 H75        30.4923   -1.3330   -0.7934 H         1 UNK         0.3140 
     76 H76        28.9042   -2.9716   -2.5283 H         1 UNK         0.1085 
     77 H77        30.5769   -3.6387   -0.5817 H         1 UNK         0.0836 
     78 H78        29.2171   -3.4255    0.4725 H         1 UNK         0.0836 
     79 H79        30.2373   -7.0858   -1.9953 H         1 UNK         0.0731 
     80 H80        31.2701   -5.9328   -1.1888 H         1 UNK         0.0731 
     81 H81        32.4282   -4.3449   -2.5553 H         1 UNK         0.1312 
     82 H82        31.1628   -3.5654   -6.5729 H         1 UNK         0.1406 
     83 H83        28.8379   -6.1463   -4.0593 H         1 UNK         0.1631 
     84 H84        28.6955   -6.0580   -6.7741 H         1 UNK         0.0717 
     85 H85        29.1744   -4.5216   -7.4562 H         1 UNK         0.0717 
     86 H86        27.3875   -2.2895   -4.7026 H         1 UNK         0.0934 
     87 H87        28.7620   -2.4269   -5.7504 H         1 UNK         0.0934 
     88 H88        27.2813   -1.9105   -7.7365 H         1 UNK         0.0739 
     89 H89        25.1473   -2.1276   -5.9117 H         1 UNK         0.3093 
     90 H90        22.7465   -0.1750   -7.6848 H         1 UNK         0.0818 
     91 H91        21.6240   -2.3464   -8.1025 H         1 UNK         0.0819 
     92 H92        22.9843   -2.1519   -9.1943 H         1 UNK         0.0819 
     93 H93        23.1296   -3.2167   -7.8032 H         1 UNK         0.0819 
     94 H94        22.4301   -2.1522   -5.6538 H         1 UNK         0.3041 
     95 H95        21.6561   -0.0254   -3.3011 H         1 UNK         0.0784 
     96 H96        21.1403   -2.3474   -4.0082 H         1 UNK         0.0793 
     97 H97        22.7769   -2.8714   -3.6046 H         1 UNK         0.0793 
     98 H98        21.6800   -2.3298   -2.3440 H         1 UNK         0.0793 
     99 H99        23.2989    0.2982   -1.8531 H         1 UNK         0.3024 
    100 H100       25.8907    0.7537   -1.7196 H         1 UNK         0.1171 
    101 H101       24.2890    0.2930    0.0490 H         1 UNK         0.0786 
    102 H102       24.7951   -1.3817    0.1839 H         1 UNK         0.0786 
    103 H103       25.8724   -0.0841    0.6954 H         1 UNK         0.0786 
    104 H104       27.7567   -0.3964   -2.0980 H         1 UNK         0.2977 
    105 H105       26.1637    0.3799   -5.2840 H         1 UNK         0.3127 
    106 H106       28.4307    2.0891   -5.2496 H         1 UNK         0.0770 
    107 H107       25.4730    2.6837   -4.6960 H         1 UNK         0.0814 
    108 H108       26.8094    3.7506   -4.2842 H         1 UNK         0.0814 
    109 H109       26.6838    2.1799   -3.5138 H         1 UNK         0.0814 
    110 H110       25.9320    1.7072   -7.6653 H         1 UNK         0.2983 
    111 H111       26.7854    4.1839   -9.1104 H         1 UNK         0.0947 
    112 H112       24.7354    3.7885  -10.4672 H         1 UNK         0.0806 
    113 H113       24.3389    3.9650   -8.7655 H         1 UNK         0.0806 
    114 H114       24.3460    2.3667   -9.5074 H         1 UNK         0.0806 
    115 H115       26.2462    0.6409   -9.5063 H         1 UNK         0.3000 
    116 H116       27.1436    0.5823  -12.2082 H         1 UNK         0.0850 
    117 H117       26.8929   -1.8813  -11.9434 H         1 UNK         0.0810 
    118 H118       25.5104   -1.0341  -11.2674 H         1 UNK         0.0810 
    119 H119       26.7444   -1.6997  -10.2008 H         1 UNK         0.0810 
    120 H120       28.8547   -0.1182   -9.1427 H         1 UNK         0.3040 
    121 H121       31.3338   -0.8260  -10.6757 H         1 UNK         0.0766 
    122 H122       31.9945   -2.0607   -8.6400 H         1 UNK         0.0812 
    123 H123       30.4589   -2.6667   -9.2416 H         1 UNK         0.0812 
    124 H124       30.5025   -1.6094   -7.8321 H         1 UNK         0.0812 
    125 H125       30.0560    0.9552   -7.8639 H         1 UNK         0.3205 
    126 H126       30.6097    2.7540   -6.7550 H         1 UNK         0.0754 
    127 H127       32.0763    4.5250   -7.6554 H         1 UNK         0.0769 
    128 H128       30.9825    3.9453   -8.9017 H         1 UNK         0.0769 
    129 H129       32.6761    3.4495   -8.9069 H         1 UNK         0.0769 
    130 H130       33.3805    0.8399   -7.7486 H         1 UNK         0.2981 
    131 H131       34.9568   -0.2145   -6.6634 H         1 UNK         0.0541 
    132 H132       37.4017    1.7631   -4.6133 H         1 UNK         0.3459 
    133 H133       36.5413    0.2812   -4.2904 H         1 UNK         0.3459 
    134 H134       33.7530    0.5059   -3.9524 H         1 UNK         0.0612 
    135 H135       34.7905   -0.8460   -4.3163 H         1 UNK         0.0612 
    136 H136       33.7027   -3.2456   -5.6522 H         1 UNK         0.0624 
    137 H137       33.7742   -2.9601   -3.9229 H         1 UNK         0.0624 
@<TRIPOS>BOND
     1    1    2 1    
     2    1   72 1    
     3    1   73 1    
     4    1   74 1    
     5    2    3 2    
     6    2    4 am   BACKBONE|DICT|INTERRES
     7    4    5 1    
     8    4   75 1    
     9    5    6 1    
    10    5   35 1    
    11    5   76 1    
    12    6    7 1    
    13    6   77 1    
    14    6   78 1    
    15    7    8 1    
    16    8    9 1    
    17    8   79 1    
    18    8   80 1    
    19    9   10 ar   
    20    9   14 ar   
    21   10   11 ar   
    22   10   81 1    
    23   11   12 ar   
    24   11   71 1    
    25   12   13 ar   
    26   12   82 1    
    27   13   14 ar   
    28   13   15 1    
    29   14   83 1    
    30   15   16 1    
    31   15   84 1    
    32   15   85 1    
    33   16   17 1    
    34   17   18 1    
    35   17   86 1    
    36   17   87 1    
    37   18   19 1    
    38   18   37 1    
    39   18   88 1    
    40   19   20 am   BACKBONE|DICT|INTERRES
    41   19   89 1    
    42   20   21 2    
    43   20   22 1    
    44   22   23 1    
    45   22   24 1    
    46   22   90 1    
    47   23   91 1    
    48   23   92 1    
    49   23   93 1    
    50   24   25 am   BACKBONE|DICT|INTERRES
    51   24   94 1    
    52   25   26 2    
    53   25   27 1    
    54   27   28 1    
    55   27   29 1    
    56   27   95 1    
    57   28   96 1    
    58   28   97 1    
    59   28   98 1    
    60   29   30 am   BACKBONE|DICT|INTERRES
    61   29   99 1    
    62   30   31 2    
    63   30   32 1    
    64   32   33 1    
    65   32   34 1    
    66   32  100 1    
    67   33  101 1    
    68   33  102 1    
    69   33  103 1    
    70   34   35 am   BACKBONE|DICT|INTERRES
    71   34  104 1    
    72   35   36 2    
    73   37   38 2    
    74   37   39 am   BACKBONE|DICT|INTERRES
    75   39   40 1    
    76   39  105 1    
    77   40   41 1    
    78   40   42 1    
    79   40  106 1    
    80   41  107 1    
    81   41  108 1    
    82   41  109 1    
    83   42   43 2    
    84   42   44 am   BACKBONE|DICT|INTERRES
    85   44   45 1    
    86   44  110 1    
    87   45   46 1    
    88   45   47 1    
    89   45  111 1    
    90   46  112 1    
    91   46  113 1    
    92   46  114 1    
    93   47   48 2    
    94   47   49 am   BACKBONE|DICT|INTERRES
    95   49   50 1    
    96   49  115 1    
    97   50   51 1    
    98   50   52 1    
    99   50  116 1    
   100   51  117 1    
   101   51  118 1    
   102   51  119 1    
   103   52   53 2    
   104   52   54 am   BACKBONE|DICT|INTERRES
   105   54   55 1    
   106   54  120 1    
   107   55   56 1    
   108   55   57 1    
   109   55  121 1    
   110   56  122 1    
   111   56  123 1    
   112   56  124 1    
   113   57   58 2    
   114   57   59 am   BACKBONE|DICT|INTERRES
   115   59   60 1    
   116   59  125 1    
   117   60   61 1    
   118   60   62 1    
   119   60  126 1    
   120   61  127 1    
   121   61  128 1    
   122   61  129 1    
   123   62   63 2    
   124   62   64 am   BACKBONE|DICT|INTERRES
   125   64   65 1    
   126   64  130 1    
   127   65   66 1    
   128   65   69 1    
   129   65  131 1    
   130   66   67 am   BACKBONE|DICT|INTERRES
   131   66   68 2    
   132   67  132 1    
   133   67  133 1    
   134   69   70 1    
   135   69  134 1    
   136   69  135 1    
   137   70   71 1    
   138   71  136 1    
   139   71  137 1    
@<TRIPOS>SUBSTRUCTURE
     1 UNK         1 GROUP             0       ****    0 ROOT    
