@<TRIPOS>MOLECULE
3R137
137   139    1
SMALL
USER_CHARGES


@<TRIPOS>ATOM
      1 CA         24.2471   -6.0742   -4.8940 C.3       0 UNK        -0.2020 
      2 C          25.0204   -5.0914   -4.0284 C.2       0 UNK         0.4855 
      3 O          25.1619   -3.9328   -4.4187 O.2       0 UNK        -0.5197 
      4 N          25.5074   -5.5540   -2.8652 N.am      1 UNK        -0.4892 
      5 CA         26.2894   -4.8250   -1.8507 C.3       1 UNK         0.0835 
      6 C6         27.8314   -4.8893   -2.0848 C.3       12 UNK        -0.0855 
      7 S7         28.4363   -4.1860   -3.6598 S.3       12 UNK        -0.2931 
      8 C8         30.1928   -4.6994   -3.6363 C.3       12 UNK         0.0378 
      9 C9         31.1986   -3.5894   -3.3191 C.ar      12 UNK        -0.0802 
     10 C10        32.5483   -3.8040   -3.6220 C.ar      12 UNK        -0.0944 
     11 C11        33.5057   -2.8151   -3.3753 C.ar      12 UNK        -0.0787 
     12 C12        33.1046   -1.5937   -2.8272 C.ar      12 UNK        -0.0862 
     13 C13        31.7629   -1.3605   -2.5173 C.ar      12 UNK        -0.0733 
     14 C14        30.8222   -2.3685   -2.7444 C.ar      12 UNK        -0.0832 
     15 C15        31.3398   -0.0239   -1.9234 C.3       12 UNK         0.0240 
     16 S16        30.8682    1.1753   -3.2134 S.3       12 UNK        -0.2522 
     17 C17        29.1255    0.7344   -3.5161 C.3       12 UNK        -0.0967 
     18 CA         28.7255    0.8390   -5.0114 C.3       5 UNK         0.0660 
     19 N          27.7492   -0.1848   -5.3935 N.am      5 UNK        -0.4015 
     20 C          27.4242   -0.5007   -6.6541 C.2       4 UNK         0.4946 
     21 O          27.9986   -0.0412   -7.6407 O.2       4 UNK        -0.5353 
     22 CA         26.2536   -1.4764   -6.8623 C.3       4 UNK         0.0277 
     23 CB         26.7689   -2.9033   -7.0996 C.3       4 UNK        -0.1981 
     24 N          25.2989   -1.4739   -5.7512 N.am      4 UNK        -0.4209 
     25 C          24.4959   -0.4427   -5.4521 C.2       3 UNK         0.4942 
     26 O          24.4475    0.5966   -6.1097 O.2       3 UNK        -0.5208 
     27 CA         23.6658   -0.5608   -4.1643 C.3       3 UNK         0.0250 
     28 CB         22.4759   -1.5144   -4.3567 C.3       3 UNK        -0.1990 
     29 N          24.4683   -0.9901   -3.0154 N.am      3 UNK        -0.4232 
     30 C          25.5092   -0.3180   -2.5070 C.2       2 UNK         0.4993 
     31 O          25.9047    0.7574   -2.9565 O.2       2 UNK        -0.5286 
     32 CA         26.2819   -0.9595   -1.3410 C.3       2 UNK         0.0209 
     33 CB         25.6007   -0.6701    0.0108 C.3       2 UNK        -0.1931 
     34 N          26.5651   -2.3911   -1.5293 N.am      2 UNK        -0.4546 
     35 C          25.7133   -3.4260   -1.5238 C.2       1 UNK         0.5154 
     36 O          24.5069   -3.3141   -1.2908 O.2       1 UNK        -0.5181 
     37 C          28.1939    2.2403   -5.3681 C.2       5 UNK         0.5014 
     38 O          28.8684    2.9869   -6.0774 O.2       5 UNK        -0.5248 
     39 N          26.9674    2.5444   -4.9154 N.am      6 UNK        -0.4434 
     40 CA         26.2472    3.7908   -5.1921 C.3       6 UNK         0.0363 
     41 CB         24.9398    3.8128   -4.3844 C.3       6 UNK        -0.1936 
     42 C          25.9655    4.0136   -6.6884 C.2       6 UNK         0.5081 
     43 O          26.0746    5.1443   -7.1630 O.2       6 UNK        -0.5248 
     44 N          25.6416    2.9321   -7.4100 N.am      7 UNK        -0.4718 
     45 CA         25.4447    2.9260   -8.8629 C.3       7 UNK         0.0273 
     46 CB         24.6685    1.6571   -9.2525 C.3       7 UNK        -0.1935 
     47 C          26.7523    3.0160   -9.6749 C.2       7 UNK         0.5018 
     48 O          26.6773    3.2104  -10.8888 O.2       7 UNK        -0.5186 
     49 N          27.9097    2.8463   -9.0148 N.am      8 UNK        -0.4240 
     50 CA         29.2622    2.7748   -9.5850 C.3       8 UNK         0.0235 
     51 CB         29.6754    4.1244  -10.2100 C.3       8 UNK        -0.2000 
     52 C          29.4575    1.5789  -10.5413 C.2       8 UNK         0.4941 
     53 O          30.2396    1.6673  -11.4897 O.2       8 UNK        -0.5273 
     54 N          28.7480    0.4784  -10.2636 N.am      9 UNK        -0.4262 
     55 CA         28.8716   -0.8086  -10.9461 C.3       9 UNK         0.0264 
     56 CB         27.4951   -1.4927  -10.9792 C.3       9 UNK        -0.1955 
     57 C          29.9122   -1.7093  -10.2587 C.2       9 UNK         0.5031 
     58 O          30.5260   -2.5370  -10.9346 O.2       9 UNK        -0.5390 
     59 N          30.0964   -1.5310   -8.9419 N.am      10 UNK        -0.4204 
     60 CA         31.1446   -2.1620   -8.1385 C.3       10 UNK         0.0237 
     61 CB         30.6235   -2.3869   -6.7043 C.3       10 UNK        -0.1985 
     62 C          32.4487   -1.3380   -8.1959 C.2       10 UNK         0.4970 
     63 O          32.7389   -0.7167   -9.2208 O.2       10 UNK        -0.4914 
     64 N          33.2331   -1.3720   -7.1119 N.am      11 UNK        -0.4285 
     65 CA         34.5291   -0.6900   -6.9791 C.3       11 UNK         0.1007 
     66 C          34.4292    0.8568   -7.0989 C.2       11 UNK         0.5703 
     67 N          35.4485    1.5024   -7.6500 N.am      11 UNK        -0.7361 
     68 O          33.4624    1.4761   -6.6594 O.2       11 UNK        -0.4986 
     69 C69        35.2534   -1.0833   -5.6655 C.3       12 UNK        -0.0947 
     70 S70        35.3889   -2.8900   -5.4328 S.3       12 UNK        -0.2240 
     71 C71        34.9770   -3.0791   -3.6690 C.3       12 UNK         0.0194 
     72 H72        23.2286   -5.7175   -5.0448 H         1 UNK         0.0906 
     73 H73        24.7239   -6.1655   -5.8696 H         1 UNK         0.0906 
     74 H74        24.1979   -7.0662   -4.4456 H         1 UNK         0.0906 
     75 H75        25.3100   -6.5146   -2.6221 H         1 UNK         0.3140 
     76 H76        26.1131   -5.3820   -0.9287 H         1 UNK         0.1085 
     77 H77        28.1316   -5.9382   -2.0649 H         1 UNK         0.0836 
     78 H78        28.3718   -4.4279   -1.2560 H         1 UNK         0.0836 
     79 H79        30.4222   -5.1061   -4.6224 H         1 UNK         0.0731 
     80 H80        30.3354   -5.5184   -2.9304 H         1 UNK         0.0731 
     81 H81        32.8583   -4.7465   -4.0530 H         1 UNK         0.1312 
     82 H82        33.8381   -0.8230   -2.6334 H         1 UNK         0.1406 
     83 H83        29.7939   -2.1931   -2.4745 H         1 UNK         0.1631 
     84 H84        32.1632    0.3973   -1.3446 H         1 UNK         0.0717 
     85 H85        30.5175   -0.1579   -1.2187 H         1 UNK         0.0717 
     86 H86        28.9684   -0.2842   -3.1704 H         1 UNK         0.0934 
     87 H87        28.4966    1.3529   -2.8728 H         1 UNK         0.0934 
     88 H88        29.6145    0.6663   -5.6220 H         1 UNK         0.0739 
     89 H89        27.1975   -0.5879   -4.6520 H         1 UNK         0.3093 
     90 H90        25.7215   -1.1595   -7.7605 H         1 UNK         0.0818 
     91 H91        27.4779   -2.9373   -7.9274 H         1 UNK         0.0819 
     92 H92        27.2742   -3.2992   -6.2192 H         1 UNK         0.0819 
     93 H93        25.9518   -3.5822   -7.3441 H         1 UNK         0.0819 
     94 H94        25.2599   -2.3180   -5.1765 H         1 UNK         0.3041 
     95 H95        23.2721    0.4321   -3.9366 H         1 UNK         0.0784 
     96 H96        21.8604   -1.2044   -5.2023 H         1 UNK         0.0793 
     97 H97        22.8013   -2.5377   -4.5470 H         1 UNK         0.0793 
     98 H98        21.8333   -1.5271   -3.4761 H         1 UNK         0.0793 
     99 H99        24.2383   -1.8843   -2.5907 H         1 UNK         0.3024 
    100 H100       27.2562   -0.4693   -1.3123 H         1 UNK         0.1171 
    101 H101       26.1724   -1.0864    0.8402 H         1 UNK         0.0786 
    102 H102       25.5209    0.4046    0.1800 H         1 UNK         0.0786 
    103 H103       24.5907   -1.0773    0.0611 H         1 UNK         0.0786 
    104 H104       27.5149   -2.6101   -1.7960 H         1 UNK         0.2977 
    105 H105       26.4923    1.8739   -4.3127 H         1 UNK         0.3127 
    106 H106       26.8756    4.6153   -4.8492 H         1 UNK         0.0770 
    107 H107       24.2803    2.9899   -4.6631 H         1 UNK         0.0814 
    108 H108       24.3929    4.7418   -4.5505 H         1 UNK         0.0814 
    109 H109       25.1335    3.7362   -3.3143 H         1 UNK         0.0814 
    110 H110       25.4800    2.0543   -6.9225 H         1 UNK         0.2983 
    111 H111       24.8379    3.7939   -9.1302 H         1 UNK         0.0947 
    112 H112       24.4338    1.6522  -10.3178 H         1 UNK         0.0806 
    113 H113       23.7240    1.5857   -8.7128 H         1 UNK         0.0806 
    114 H114       25.2445    0.7561   -9.0429 H         1 UNK         0.0806 
    115 H115       27.8628    2.7060   -8.0121 H         1 UNK         0.3000 
    116 H116       29.9286    2.5889   -8.7410 H         1 UNK         0.0850 
    117 H117       30.7285    4.1172  -10.4937 H         1 UNK         0.0810 
    118 H118       29.5362    4.9453   -9.5066 H         1 UNK         0.0810 
    119 H119       29.0996    4.3492  -11.1082 H         1 UNK         0.0810 
    120 H120       28.1936    0.4807   -9.4103 H         1 UNK         0.3040 
    121 H121       29.1972   -0.6463  -11.9759 H         1 UNK         0.0766 
    122 H122       26.7690   -0.8902  -11.5253 H         1 UNK         0.0812 
    123 H123       27.1013   -1.6608   -9.9769 H         1 UNK         0.0812 
    124 H124       27.5523   -2.4620  -11.4762 H         1 UNK         0.0812 
    125 H125       29.5187   -0.8407   -8.4709 H         1 UNK         0.3205 
    126 H126       31.3718   -3.1421   -8.5629 H         1 UNK         0.0754 
    127 H127       31.3109   -3.0072   -6.1302 H         1 UNK         0.0769 
    128 H128       29.6686   -2.9102   -6.7057 H         1 UNK         0.0769 
    129 H129       30.4908   -1.4506   -6.1626 H         1 UNK         0.0769 
    130 H130       32.9300   -1.8903   -6.3012 H         1 UNK         0.2981 
    131 H131       35.1425   -1.0421   -7.8109 H         1 UNK         0.0541 
    132 H132       36.2527    1.0066   -8.0019 H         1 UNK         0.3459 
    133 H133       35.4089    2.5070   -7.7218 H         1 UNK         0.3459 
    134 H134       34.7439   -0.6384   -4.8114 H         1 UNK         0.0612 
    135 H135       36.2652   -0.6743   -5.6559 H         1 UNK         0.0612 
    136 H136       35.2282   -4.0950   -3.3608 H         1 UNK         0.0624 
    137 H137       35.6138   -2.4184   -3.0785 H         1 UNK         0.0624 
@<TRIPOS>BOND
     1    1    2 1    
     2    1   72 1    
     3    1   73 1    
     4    1   74 1    
     5    2    3 2    
     6    2    4 am   BACKBONE|DICT|INTERRES
     7    4    5 1    
     8    4   75 1    
     9    5    6 1    
    10    5   35 1    
    11    5   76 1    
    12    6    7 1    
    13    6   77 1    
    14    6   78 1    
    15    7    8 1    
    16    8    9 1    
    17    8   79 1    
    18    8   80 1    
    19    9   10 ar   
    20    9   14 ar   
    21   10   11 ar   
    22   10   81 1    
    23   11   12 ar   
    24   11   71 1    
    25   12   13 ar   
    26   12   82 1    
    27   13   14 ar   
    28   13   15 1    
    29   14   83 1    
    30   15   16 1    
    31   15   84 1    
    32   15   85 1    
    33   16   17 1    
    34   17   18 1    
    35   17   86 1    
    36   17   87 1    
    37   18   19 1    
    38   18   37 1    
    39   18   88 1    
    40   19   20 am   BACKBONE|DICT|INTERRES
    41   19   89 1    
    42   20   21 2    
    43   20   22 1    
    44   22   23 1    
    45   22   24 1    
    46   22   90 1    
    47   23   91 1    
    48   23   92 1    
    49   23   93 1    
    50   24   25 am   BACKBONE|DICT|INTERRES
    51   24   94 1    
    52   25   26 2    
    53   25   27 1    
    54   27   28 1    
    55   27   29 1    
    56   27   95 1    
    57   28   96 1    
    58   28   97 1    
    59   28   98 1    
    60   29   30 am   BACKBONE|DICT|INTERRES
    61   29   99 1    
    62   30   31 2    
    63   30   32 1    
    64   32   33 1    
    65   32   34 1    
    66   32  100 1    
    67   33  101 1    
    68   33  102 1    
    69   33  103 1    
    70   34   35 am   BACKBONE|DICT|INTERRES
    71   34  104 1    
    72   35   36 2    
    73   37   38 2    
    74   37   39 am   BACKBONE|DICT|INTERRES
    75   39   40 1    
    76   39  105 1    
    77   40   41 1    
    78   40   42 1    
    79   40  106 1    
    80   41  107 1    
    81   41  108 1    
    82   41  109 1    
    83   42   43 2    
    84   42   44 am   BACKBONE|DICT|INTERRES
    85   44   45 1    
    86   44  110 1    
    87   45   46 1    
    88   45   47 1    
    89   45  111 1    
    90   46  112 1    
    91   46  113 1    
    92   46  114 1    
    93   47   48 2    
    94   47   49 am   BACKBONE|DICT|INTERRES
    95   49   50 1    
    96   49  115 1    
    97   50   51 1    
    98   50   52 1    
    99   50  116 1    
   100   51  117 1    
   101   51  118 1    
   102   51  119 1    
   103   52   53 2    
   104   52   54 am   BACKBONE|DICT|INTERRES
   105   54   55 1    
   106   54  120 1    
   107   55   56 1    
   108   55   57 1    
   109   55  121 1    
   110   56  122 1    
   111   56  123 1    
   112   56  124 1    
   113   57   58 2    
   114   57   59 am   BACKBONE|DICT|INTERRES
   115   59   60 1    
   116   59  125 1    
   117   60   61 1    
   118   60   62 1    
   119   60  126 1    
   120   61  127 1    
   121   61  128 1    
   122   61  129 1    
   123   62   63 2    
   124   62   64 am   BACKBONE|DICT|INTERRES
   125   64   65 1    
   126   64  130 1    
   127   65   66 1    
   128   65   69 1    
   129   65  131 1    
   130   66   67 am   BACKBONE|DICT|INTERRES
   131   66   68 2    
   132   67  132 1    
   133   67  133 1    
   134   69   70 1    
   135   69  134 1    
   136   69  135 1    
   137   70   71 1    
   138   71  136 1    
   139   71  137 1    
@<TRIPOS>SUBSTRUCTURE
     1 UNK         1 GROUP             0       ****    0 ROOT    
