@<TRIPOS>MOLECULE
3R137
137   139    1
SMALL
USER_CHARGES


@<TRIPOS>ATOM
      1 CA         26.7543   -4.1652    1.1201 C.3       0 UNK        -0.2020 
      2 C          26.5782   -3.8191   -0.3500 C.2       0 UNK         0.4855 
      3 O          25.7221   -3.0009   -0.6826 O.2       0 UNK        -0.5197 
      4 N          27.3684   -4.4528   -1.2297 N.am      1 UNK        -0.4892 
      5 CA         27.4299   -4.2243   -2.6842 C.3       1 UNK         0.0835 
      6 C6         28.4933   -5.1483   -3.3347 C.3       12 UNK        -0.0855 
      7 S7         29.2480   -4.4602   -4.8487 S.3       12 UNK        -0.2931 
      8 C8         30.8666   -3.8738   -4.2461 C.3       12 UNK         0.0378 
      9 C9         30.8048   -2.4159   -3.8162 C.ar      12 UNK        -0.0802 
     10 C10        31.2437   -1.4129   -4.6846 C.ar      12 UNK        -0.0944 
     11 C11        31.1729   -0.0685   -4.3111 C.ar      12 UNK        -0.0787 
     12 C12        30.6689    0.2729   -3.0548 C.ar      12 UNK        -0.0862 
     13 C13        30.1875   -0.7186   -2.1947 C.ar      12 UNK        -0.0733 
     14 C14        30.2877   -2.0628   -2.5663 C.ar      12 UNK        -0.0832 
     15 C15        29.5010   -0.3369   -0.8929 C.3       12 UNK         0.0240 
     16 S16        27.7010   -0.1569   -1.1355 S.3       12 UNK        -0.2522 
     17 C17        27.5941    1.4130   -2.0598 C.3       12 UNK        -0.0967 
     18 CA         27.4054    1.2077   -3.5875 C.3       5 UNK         0.0660 
     19 N          26.1012    0.6234   -3.9116 N.am      5 UNK        -0.4015 
     20 C          25.7870    0.0416   -5.0778 C.2       4 UNK         0.4946 
     21 O          26.5912   -0.1118   -5.9983 O.2       4 UNK        -0.5353 
     22 CA         24.3377   -0.4443   -5.2356 C.3       4 UNK         0.0277 
     23 CB         24.1282   -1.2791   -6.5136 C.3       4 UNK        -0.1981 
     24 N          23.9551   -1.2497   -4.0775 N.am      4 UNK        -0.4209 
     25 C          23.0072   -0.9318   -3.1848 C.2       3 UNK         0.4942 
     26 O          22.3575    0.1139   -3.2349 O.2       3 UNK        -0.5208 
     27 CA         22.7563   -1.9157   -2.0219 C.3       3 UNK         0.0250 
     28 CB         21.2729   -1.9727   -1.5972 C.3       3 UNK        -0.1990 
     29 N          23.3026   -3.2589   -2.2510 N.am      3 UNK        -0.4232 
     30 C          22.9225   -4.1596   -3.1731 C.2       2 UNK         0.4993 
     31 O          21.9513   -4.0105   -3.9162 O.2       2 UNK        -0.5286 
     32 CA         23.7943   -5.4301   -3.3046 C.3       2 UNK         0.0209 
     33 CB         23.7284   -6.0457   -4.7191 C.3       2 UNK        -0.1931 
     34 N          25.1954   -5.2326   -2.8990 N.am      2 UNK        -0.4546 
     35 C          26.0629   -4.3340   -3.3953 C.2       1 UNK         0.5154 
     36 O          25.7926   -3.5604   -4.3139 O.2       1 UNK        -0.5181 
     37 C          27.6092    2.5255   -4.3656 C.2       5 UNK         0.5014 
     38 O          27.3682    3.6043   -3.8197 O.2       5 UNK        -0.5248 
     39 N          28.0213    2.4142   -5.6317 N.am      6 UNK        -0.4434 
     40 CA         28.2470    3.5148   -6.5628 C.3       6 UNK         0.0363 
     41 CB         26.8991    3.9707   -7.1566 C.3       6 UNK        -0.1936 
     42 C          29.2053    3.0494   -7.6655 C.2       6 UNK         0.5081 
     43 O          29.4998    1.8565   -7.7651 O.2       6 UNK        -0.5248 
     44 N          29.6347    3.9896   -8.5176 N.am      7 UNK        -0.4718 
     45 CA         30.5327    3.7659   -9.6617 C.3       7 UNK         0.0273 
     46 CB         30.9363    5.1278  -10.2505 C.3       7 UNK        -0.1935 
     47 C          29.9816    2.8349  -10.7643 C.2       7 UNK         0.5018 
     48 O          30.7331    2.4610  -11.6644 O.2       7 UNK        -0.5186 
     49 N          28.6953    2.4690  -10.6776 N.am      8 UNK        -0.4240 
     50 CA         28.0679    1.4126  -11.4733 C.3       8 UNK         0.0235 
     51 CB         26.5399    1.5347  -11.3497 C.3       8 UNK        -0.2000 
     52 C          28.5290   -0.0024  -11.0664 C.2       8 UNK         0.4941 
     53 O          28.4323   -0.9160  -11.8876 O.2       8 UNK        -0.5273 
     54 N          29.0059   -0.1640   -9.8231 N.am      9 UNK        -0.4262 
     55 CA         29.5865   -1.3971   -9.2923 C.3       9 UNK         0.0264 
     56 CB         29.1245   -1.5721   -7.8311 C.3       9 UNK        -0.1955 
     57 C          31.1207   -1.3728   -9.4418 C.2       9 UNK         0.5031 
     58 O          31.6528   -0.6373  -10.2771 O.2       9 UNK        -0.5390 
     59 N          31.8158   -2.1813   -8.6282 N.am      10 UNK        -0.4204 
     60 CA         33.2700   -2.4015   -8.6505 C.3       10 UNK         0.0237 
     61 CB         33.6353   -3.4276   -7.5642 C.3       10 UNK        -0.1985 
     62 C          34.1508   -1.1424   -8.5090 C.2       10 UNK         0.4970 
     63 O          35.3213   -1.1917   -8.8897 O.2       10 UNK        -0.4914 
     64 N          33.5888   -0.0495   -7.9786 N.am      11 UNK        -0.4285 
     65 CA         34.2367    1.2687   -7.8905 C.3       11 UNK         0.1007 
     66 C          34.3594    2.0048   -9.2572 C.2       11 UNK         0.5703 
     67 N          33.6620    1.5857  -10.3074 N.am      11 UNK        -0.7361 
     68 O          35.1046    2.9756   -9.3638 O.2       11 UNK        -0.4986 
     69 C69        33.5613    2.1878   -6.8365 C.3       12 UNK        -0.0947 
     70 S70        33.3513    1.3826   -5.2125 S.3       12 UNK        -0.2240 
     71 C71        31.5764    1.0128   -5.2955 C.3       12 UNK         0.0194 
     72 H72        27.5323   -4.9123    1.2755 H         1 UNK         0.0906 
     73 H73        27.0248   -3.2718    1.6824 H         1 UNK         0.0906 
     74 H74        25.8221   -4.5548    1.5280 H         1 UNK         0.0906 
     75 H75        28.0250   -5.1337   -0.8743 H         1 UNK         0.3140 
     76 H76        27.7426   -3.1856   -2.8085 H         1 UNK         0.1085 
     77 H77        28.0694   -6.1263   -3.5722 H         1 UNK         0.0836 
     78 H78        29.2952   -5.3585   -2.6261 H         1 UNK         0.0836 
     79 H79        31.5938   -3.9938   -5.0503 H         1 UNK         0.0731 
     80 H80        31.2297   -4.4957   -3.4270 H         1 UNK         0.0731 
     81 H81        31.6263   -1.6752   -5.6600 H         1 UNK         0.1312 
     82 H82        30.5996    1.3140   -2.7720 H         1 UNK         0.1406 
     83 H83        29.9278   -2.8315   -1.8968 H         1 UNK         0.1631 
     84 H84        29.9195    0.5861   -0.4888 H         1 UNK         0.0717 
     85 H85        29.6788   -1.1070   -0.1408 H         1 UNK         0.0717 
     86 H86        26.7663    1.9942   -1.6490 H         1 UNK         0.0934 
     87 H87        28.4902    2.0003   -1.8524 H         1 UNK         0.0934 
     88 H88        28.1661    0.5069   -3.9335 H         1 UNK         0.0739 
     89 H89        25.3837    0.7138   -3.2080 H         1 UNK         0.3093 
     90 H90        23.7132    0.4479   -5.3125 H         1 UNK         0.0818 
     91 H91        24.7626   -2.1666   -6.5216 H         1 UNK         0.0819 
     92 H92        23.0930   -1.6073   -6.6067 H         1 UNK         0.0819 
     93 H93        24.3668   -0.6981   -7.4054 H         1 UNK         0.0819 
     94 H94        24.4782   -2.1142   -3.9635 H         1 UNK         0.3041 
     95 H95        23.3193   -1.5157   -1.1771 H         1 UNK         0.0784 
     96 H96        20.9255   -0.9958   -1.2588 H         1 UNK         0.0793 
     97 H97        20.6255   -2.2772   -2.4198 H         1 UNK         0.0793 
     98 H98        21.1221   -2.6706   -0.7737 H         1 UNK         0.0793 
     99 H99        24.1444   -3.4533   -1.7133 H         1 UNK         0.3024 
    100 H100       23.3686   -6.1545   -2.6082 H         1 UNK         0.1171 
    101 H101       24.3391   -6.9457   -4.7894 H         1 UNK         0.0786 
    102 H102       22.7074   -6.3291   -4.9776 H         1 UNK         0.0786 
    103 H103       24.0736   -5.3455   -5.4807 H         1 UNK         0.0786 
    104 H104       25.5095   -5.7927   -2.1181 H         1 UNK         0.2977 
    105 H105       28.1655    1.4900   -6.0289 H         1 UNK         0.3127 
    106 H106       28.7195    4.3442   -6.0323 H         1 UNK         0.0770 
    107 H107       26.4039    3.1609   -7.6943 H         1 UNK         0.0814 
    108 H108       27.0269    4.7992   -7.8539 H         1 UNK         0.0814 
    109 H109       26.2187    4.3151   -6.3777 H         1 UNK         0.0814 
    110 H110       29.3306    4.9424   -8.3735 H         1 UNK         0.2983 
    111 H111       31.4331    3.2825   -9.2784 H         1 UNK         0.0947 
    112 H112       31.6419    5.0052  -11.0737 H         1 UNK         0.0806 
    113 H113       31.4233    5.7555   -9.5040 H         1 UNK         0.0806 
    114 H114       30.0738    5.6708  -10.6389 H         1 UNK         0.0806 
    115 H115       28.1542    2.8456   -9.9140 H         1 UNK         0.3000 
    116 H116       28.3434    1.5609  -12.5198 H         1 UNK         0.0850 
    117 H117       26.0388    0.7792  -11.9565 H         1 UNK         0.0810 
    118 H118       26.1895    2.5083  -11.6932 H         1 UNK         0.0810 
    119 H119       26.2056    1.3994  -10.3202 H         1 UNK         0.0810 
    120 H120       29.0993    0.6503   -9.2221 H         1 UNK         0.3040 
    121 H121       29.2217   -2.2523   -9.8645 H         1 UNK         0.0766 
    122 H122       29.4223   -2.5360   -7.4182 H         1 UNK         0.0812 
    123 H123       28.0374   -1.5314   -7.7614 H         1 UNK         0.0812 
    124 H124       29.5204   -0.7931   -7.1794 H         1 UNK         0.0812 
    125 H125       31.2917   -2.7579   -7.9866 H         1 UNK         0.3205 
    126 H126       33.5060   -2.8385   -9.6229 H         1 UNK         0.0754 
    127 H127       33.4302   -3.0473   -6.5631 H         1 UNK         0.0769 
    128 H128       34.6972   -3.6752   -7.6033 H         1 UNK         0.0769 
    129 H129       33.0853   -4.3603   -7.6919 H         1 UNK         0.0769 
    130 H130       32.6177   -0.0865   -7.7150 H         1 UNK         0.2981 
    131 H131       35.2602    1.0967   -7.5520 H         1 UNK         0.0541 
    132 H132       33.0247    0.7980  -10.2374 H         1 UNK         0.3459 
    133 H133       33.7451    2.0770  -11.1824 H         1 UNK         0.3459 
    134 H134       32.5918    2.5389   -7.1952 H         1 UNK         0.0612 
    135 H135       34.1637    3.0846   -6.6811 H         1 UNK         0.0612 
    136 H136       31.3201    0.6852   -6.3027 H         1 UNK         0.0624 
    137 H137       31.0091    1.9276   -5.1175 H         1 UNK         0.0624 
@<TRIPOS>BOND
     1    1    2 1    
     2    1   72 1    
     3    1   73 1    
     4    1   74 1    
     5    2    3 2    
     6    2    4 am   BACKBONE|DICT|INTERRES
     7    4    5 1    
     8    4   75 1    
     9    5    6 1    
    10    5   35 1    
    11    5   76 1    
    12    6    7 1    
    13    6   77 1    
    14    6   78 1    
    15    7    8 1    
    16    8    9 1    
    17    8   79 1    
    18    8   80 1    
    19    9   10 ar   
    20    9   14 ar   
    21   10   11 ar   
    22   10   81 1    
    23   11   12 ar   
    24   11   71 1    
    25   12   13 ar   
    26   12   82 1    
    27   13   14 ar   
    28   13   15 1    
    29   14   83 1    
    30   15   16 1    
    31   15   84 1    
    32   15   85 1    
    33   16   17 1    
    34   17   18 1    
    35   17   86 1    
    36   17   87 1    
    37   18   19 1    
    38   18   37 1    
    39   18   88 1    
    40   19   20 am   BACKBONE|DICT|INTERRES
    41   19   89 1    
    42   20   21 2    
    43   20   22 1    
    44   22   23 1    
    45   22   24 1    
    46   22   90 1    
    47   23   91 1    
    48   23   92 1    
    49   23   93 1    
    50   24   25 am   BACKBONE|DICT|INTERRES
    51   24   94 1    
    52   25   26 2    
    53   25   27 1    
    54   27   28 1    
    55   27   29 1    
    56   27   95 1    
    57   28   96 1    
    58   28   97 1    
    59   28   98 1    
    60   29   30 am   BACKBONE|DICT|INTERRES
    61   29   99 1    
    62   30   31 2    
    63   30   32 1    
    64   32   33 1    
    65   32   34 1    
    66   32  100 1    
    67   33  101 1    
    68   33  102 1    
    69   33  103 1    
    70   34   35 am   BACKBONE|DICT|INTERRES
    71   34  104 1    
    72   35   36 2    
    73   37   38 2    
    74   37   39 am   BACKBONE|DICT|INTERRES
    75   39   40 1    
    76   39  105 1    
    77   40   41 1    
    78   40   42 1    
    79   40  106 1    
    80   41  107 1    
    81   41  108 1    
    82   41  109 1    
    83   42   43 2    
    84   42   44 am   BACKBONE|DICT|INTERRES
    85   44   45 1    
    86   44  110 1    
    87   45   46 1    
    88   45   47 1    
    89   45  111 1    
    90   46  112 1    
    91   46  113 1    
    92   46  114 1    
    93   47   48 2    
    94   47   49 am   BACKBONE|DICT|INTERRES
    95   49   50 1    
    96   49  115 1    
    97   50   51 1    
    98   50   52 1    
    99   50  116 1    
   100   51  117 1    
   101   51  118 1    
   102   51  119 1    
   103   52   53 2    
   104   52   54 am   BACKBONE|DICT|INTERRES
   105   54   55 1    
   106   54  120 1    
   107   55   56 1    
   108   55   57 1    
   109   55  121 1    
   110   56  122 1    
   111   56  123 1    
   112   56  124 1    
   113   57   58 2    
   114   57   59 am   BACKBONE|DICT|INTERRES
   115   59   60 1    
   116   59  125 1    
   117   60   61 1    
   118   60   62 1    
   119   60  126 1    
   120   61  127 1    
   121   61  128 1    
   122   61  129 1    
   123   62   63 2    
   124   62   64 am   BACKBONE|DICT|INTERRES
   125   64   65 1    
   126   64  130 1    
   127   65   66 1    
   128   65   69 1    
   129   65  131 1    
   130   66   67 am   BACKBONE|DICT|INTERRES
   131   66   68 2    
   132   67  132 1    
   133   67  133 1    
   134   69   70 1    
   135   69  134 1    
   136   69  135 1    
   137   70   71 1    
   138   71  136 1    
   139   71  137 1    
@<TRIPOS>SUBSTRUCTURE
     1 UNK         1 GROUP             0       ****    0 ROOT    
