@<TRIPOS>MOLECULE
3R137
137   139    1
SMALL
USER_CHARGES


@<TRIPOS>ATOM
      1 CA         26.1060   -9.3679   -3.4425 C.3       0 UNK        -0.2020 
      2 C          26.0576   -7.8892   -3.7978 C.2       0 UNK         0.4855 
      3 O          25.5053   -7.5310   -4.8383 O.2       0 UNK        -0.5197 
      4 N          26.6355   -7.0340   -2.9425 N.am      1 UNK        -0.4892 
      5 CA         26.6627   -5.5714   -3.0636 C.3       1 UNK         0.0835 
      6 C6         27.4652   -5.0860   -4.3077 C.3       12 UNK        -0.0855 
      7 S7         28.1485   -3.4045   -4.1055 S.3       12 UNK        -0.2931 
      8 C8         29.7200   -3.7957   -3.2654 C.3       12 UNK         0.0378 
      9 C9         30.5976   -2.5670   -3.0694 C.ar      12 UNK        -0.0802 
     10 C10        31.8767   -2.5173   -3.6348 C.ar      12 UNK        -0.0944 
     11 C11        32.6933   -1.3976   -3.4511 C.ar      12 UNK        -0.0787 
     12 C12        32.2271   -0.3263   -2.6862 C.ar      12 UNK        -0.0862 
     13 C13        30.9518   -0.3617   -2.1173 C.ar      12 UNK        -0.0733 
     14 C14        30.1452   -1.4888   -2.3021 C.ar      12 UNK        -0.0832 
     15 C15        30.4522    0.8218   -1.3029 C.3       12 UNK         0.0240 
     16 S16        29.0097    1.6301   -2.0633 S.3       12 UNK        -0.2522 
     17 C17        29.6245    2.1129   -3.7175 C.3       12 UNK        -0.0967 
     18 CA         28.7803    1.4904   -4.8602 C.3       5 UNK         0.0660 
     19 N          27.3498    1.7844   -4.6824 N.am      5 UNK        -0.4015 
     20 C          26.3427    1.5416   -5.5311 C.2       4 UNK         0.4946 
     21 O          26.4944    1.1602   -6.6915 O.2       4 UNK        -0.5353 
     22 CA         24.9248    1.6969   -4.9567 C.3       4 UNK         0.0277 
     23 CB         23.8315    1.5459   -6.0310 C.3       4 UNK        -0.1981 
     24 N          24.7185    0.6815   -3.9249 N.am      4 UNK        -0.4209 
     25 C          25.0678    0.8002   -2.6376 C.2       3 UNK         0.4942 
     26 O          25.4945    1.8503   -2.1565 O.2       3 UNK        -0.5208 
     27 CA         25.0101   -0.4602   -1.7511 C.3       3 UNK         0.0250 
     28 CB         24.0943   -0.2598   -0.5258 C.3       3 UNK        -0.1990 
     29 N          24.7008   -1.7055   -2.4738 N.am      3 UNK        -0.4232 
     30 C          23.5330   -2.0981   -3.0084 C.2       2 UNK         0.4993 
     31 O          22.4945   -1.4415   -2.9415 O.2       2 UNK        -0.5286 
     32 CA         23.5277   -3.4159   -3.8063 C.3       2 UNK         0.0209 
     33 CB         23.0910   -3.1644   -5.2600 C.3       2 UNK        -0.1931 
     34 N          24.8336   -4.0851   -3.8189 N.am      2 UNK        -0.4546 
     35 C          25.2395   -4.9834   -2.9123 C.2       1 UNK         0.5154 
     36 O          24.5432   -5.3423   -1.9597 O.2       1 UNK        -0.5181 
     37 C          29.3470    1.9026   -6.2345 C.2       5 UNK         0.5014 
     38 O          30.0194    1.1016   -6.8877 O.2       5 UNK        -0.5248 
     39 N          29.0279    3.1314   -6.6603 N.am      6 UNK        -0.4434 
     40 CA         29.4850    3.7307   -7.9152 C.3       6 UNK         0.0363 
     41 CB         29.3635    5.2594   -7.8043 C.3       6 UNK        -0.1936 
     42 C          28.7551    3.2208   -9.1717 C.2       6 UNK         0.5081 
     43 O          29.2101    3.5252  -10.2744 O.2       6 UNK        -0.5248 
     44 N          27.6517    2.4795   -9.0090 N.am      7 UNK        -0.4718 
     45 CA         26.8515    1.9350  -10.1082 C.3       7 UNK         0.0273 
     46 CB         25.3861    2.3674   -9.9328 C.3       7 UNK        -0.1935 
     47 C          26.9556    0.4060  -10.1716 C.2       7 UNK         0.5018 
     48 O          27.1433   -0.1402  -11.2587 O.2       7 UNK        -0.5186 
     49 N          26.8199   -0.2559   -9.0149 N.am      8 UNK        -0.4240 
     50 CA         26.8050   -1.7117   -8.8820 C.3       8 UNK         0.0235 
     51 CB         26.1920   -2.0938   -7.5239 C.3       8 UNK        -0.2000 
     52 C          28.1990   -2.3284   -9.0477 C.2       8 UNK         0.4941 
     53 O          28.3542   -3.2711   -9.8250 O.2       8 UNK        -0.5273 
     54 N          29.1787   -1.7866   -8.3135 N.am      9 UNK        -0.4262 
     55 CA         30.5615   -2.2694   -8.3018 C.3       9 UNK         0.0264 
     56 CB         31.0162   -2.3949   -6.8415 C.3       9 UNK        -0.1955 
     57 C          31.5191   -1.3597   -9.0891 C.2       9 UNK         0.5031 
     58 O          32.6453   -1.7790   -9.3587 O.2       9 UNK        -0.5390 
     59 N          31.0682   -0.1423   -9.4307 N.am      10 UNK        -0.4204 
     60 CA         31.8303    0.9492  -10.0521 C.3       10 UNK         0.0237 
     61 CB         32.3074    0.5687  -11.4704 C.3       10 UNK        -0.1985 
     62 C          32.9635    1.4798   -9.1490 C.2       10 UNK         0.4970 
     63 O          33.9913    1.9324   -9.6565 O.2       10 UNK        -0.4914 
     64 N          32.7542    1.4173   -7.8289 N.am      11 UNK        -0.4285 
     65 CA         33.6971    1.8713   -6.8035 C.3       11 UNK         0.1007 
     66 C          33.4806    3.3767   -6.5125 C.2       11 UNK         0.5703 
     67 N          34.4917    4.2083   -6.7225 N.am      11 UNK        -0.7361 
     68 O          32.4133    3.7900   -6.0652 O.2       11 UNK        -0.4986 
     69 C69        33.5638    1.0266   -5.5126 C.3       12 UNK        -0.0947 
     70 S70        34.0466   -0.7117   -5.7759 S.3       12 UNK        -0.2240 
     71 C71        34.0827   -1.3448   -4.0702 C.3       12 UNK         0.0194 
     72 H72        25.0952   -9.7631   -3.3451 H         1 UNK         0.0906 
     73 H73        26.6157   -9.9257   -4.2277 H         1 UNK         0.0906 
     74 H74        26.6316   -9.5466   -2.5046 H         1 UNK         0.0906 
     75 H75        27.0394   -7.3977   -2.0898 H         1 UNK         0.3140 
     76 H76        27.1993   -5.2334   -2.1757 H         1 UNK         0.1085 
     77 H77        28.3005   -5.7632   -4.4934 H         1 UNK         0.0836 
     78 H78        26.8666   -5.1317   -5.2193 H         1 UNK         0.0836 
     79 H79        30.2532   -4.5522   -3.8435 H         1 UNK         0.0731 
     80 H80        29.5109   -4.2407   -2.2918 H         1 UNK         0.0731 
     81 H81        32.2390   -3.3478   -4.2249 H         1 UNK         0.1312 
     82 H82        32.8571    0.5409   -2.5430 H         1 UNK         0.1406 
     83 H83        29.1579   -1.5198   -1.8616 H         1 UNK         0.1631 
     84 H84        31.2399    1.5645   -1.1662 H         1 UNK         0.0717 
     85 H85        30.1785    0.4781   -0.3045 H         1 UNK         0.0717 
     86 H86        29.6049    3.2031   -3.7729 H         1 UNK         0.0934 
     87 H87        30.6733    1.8314   -3.8189 H         1 UNK         0.0934 
     88 H88        28.8786    0.4045   -4.7957 H         1 UNK         0.0739 
     89 H89        27.0953    2.0647   -3.7422 H         1 UNK         0.3093 
     90 H90        24.8396    2.6956   -4.5229 H         1 UNK         0.0818 
     91 H91        22.8359    1.6529   -5.5999 H         1 UNK         0.0819 
     92 H92        23.9343    2.3133   -6.7988 H         1 UNK         0.0819 
     93 H93        23.8777    0.5760   -6.5284 H         1 UNK         0.0819 
     94 H94        24.3771   -0.2148   -4.2375 H         1 UNK         0.3041 
     95 H95        26.0253   -0.5935   -1.3735 H         1 UNK         0.0784 
     96 H96        24.4426    0.5733    0.0861 H         1 UNK         0.0793 
     97 H97        23.0669   -0.0367   -0.8139 H         1 UNK         0.0793 
     98 H98        24.0819   -1.1448    0.1104 H         1 UNK         0.0793 
     99 H99        25.4907   -2.3185   -2.6197 H         1 UNK         0.3024 
    100 H100       22.7878   -4.0699   -3.3387 H         1 UNK         0.1171 
    101 H101       22.0816   -2.7524   -5.3004 H         1 UNK         0.0786 
    102 H102       23.7495   -2.4568   -5.7619 H         1 UNK         0.0786 
    103 H103       23.0835   -4.0881   -5.8391 H         1 UNK         0.0786 
    104 H104       25.4707   -3.8352   -4.5627 H         1 UNK         0.2977 
    105 H105       28.4431    3.7064   -6.0716 H         1 UNK         0.3127 
    106 H106       30.5412    3.4869   -8.0440 H         1 UNK         0.0770 
    107 H107       28.3286    5.5740   -7.6644 H         1 UNK         0.0814 
    108 H108       29.7339    5.7486   -8.7063 H         1 UNK         0.0814 
    109 H109       29.9506    5.6423   -6.9691 H         1 UNK         0.0814 
    110 H110       27.3566    2.2316   -8.0692 H         1 UNK         0.2983 
    111 H111       27.1986    2.3236  -11.0683 H         1 UNK         0.0947 
    112 H112       24.7656    1.9817  -10.7428 H         1 UNK         0.0806 
    113 H113       25.2914    3.4532   -9.9409 H         1 UNK         0.0806 
    114 H114       24.9641    2.0020   -8.9963 H         1 UNK         0.0806 
    115 H115       26.6647    0.2791   -8.1595 H         1 UNK         0.3000 
    116 H116       26.1640   -2.1183   -9.6675 H         1 UNK         0.0850 
    117 H117       26.1344   -3.1772   -7.4103 H         1 UNK         0.0810 
    118 H118       25.1802   -1.7003   -7.4344 H         1 UNK         0.0810 
    119 H119       26.7751   -1.7067   -6.6870 H         1 UNK         0.0810 
    120 H120       28.9600   -1.0187   -7.6924 H         1 UNK         0.3040 
    121 H121       30.6212   -3.2619   -8.7534 H         1 UNK         0.0766 
    122 H122       31.0065   -1.4325   -6.3278 H         1 UNK         0.0812 
    123 H123       32.0320   -2.7871   -6.7823 H         1 UNK         0.0812 
    124 H124       30.3740   -3.0774   -6.2853 H         1 UNK         0.0812 
    125 H125       30.1404    0.1028   -9.1159 H         1 UNK         0.3205 
    126 H126       31.1334    1.7773  -10.1639 H         1 UNK         0.0754 
    127 H127       32.7278    1.4333  -11.9855 H         1 UNK         0.0769 
    128 H128       31.4824    0.2001  -12.0801 H         1 UNK         0.0769 
    129 H129       33.0795   -0.2008  -11.4479 H         1 UNK         0.0769 
    130 H130       31.8499    1.1044   -7.4880 H         1 UNK         0.2981 
    131 H131       34.7143    1.7362   -7.1775 H         1 UNK         0.0541 
    132 H132       35.3705    3.8782   -7.0901 H         1 UNK         0.3459 
    133 H133       34.3675    5.1884   -6.5235 H         1 UNK         0.3459 
    134 H134       32.5364    1.0523   -5.1471 H         1 UNK         0.0612 
    135 H135       34.1925    1.4366   -4.7200 H         1 UNK         0.0612 
    136 H136       34.5196   -2.3443   -4.0778 H         1 UNK         0.0624 
    137 H137       34.7489   -0.7263   -3.4668 H         1 UNK         0.0624 
@<TRIPOS>BOND
     1    1    2 1    
     2    1   72 1    
     3    1   73 1    
     4    1   74 1    
     5    2    3 2    
     6    2    4 am   BACKBONE|DICT|INTERRES
     7    4    5 1    
     8    4   75 1    
     9    5    6 1    
    10    5   35 1    
    11    5   76 1    
    12    6    7 1    
    13    6   77 1    
    14    6   78 1    
    15    7    8 1    
    16    8    9 1    
    17    8   79 1    
    18    8   80 1    
    19    9   10 ar   
    20    9   14 ar   
    21   10   11 ar   
    22   10   81 1    
    23   11   12 ar   
    24   11   71 1    
    25   12   13 ar   
    26   12   82 1    
    27   13   14 ar   
    28   13   15 1    
    29   14   83 1    
    30   15   16 1    
    31   15   84 1    
    32   15   85 1    
    33   16   17 1    
    34   17   18 1    
    35   17   86 1    
    36   17   87 1    
    37   18   19 1    
    38   18   37 1    
    39   18   88 1    
    40   19   20 am   BACKBONE|DICT|INTERRES
    41   19   89 1    
    42   20   21 2    
    43   20   22 1    
    44   22   23 1    
    45   22   24 1    
    46   22   90 1    
    47   23   91 1    
    48   23   92 1    
    49   23   93 1    
    50   24   25 am   BACKBONE|DICT|INTERRES
    51   24   94 1    
    52   25   26 2    
    53   25   27 1    
    54   27   28 1    
    55   27   29 1    
    56   27   95 1    
    57   28   96 1    
    58   28   97 1    
    59   28   98 1    
    60   29   30 am   BACKBONE|DICT|INTERRES
    61   29   99 1    
    62   30   31 2    
    63   30   32 1    
    64   32   33 1    
    65   32   34 1    
    66   32  100 1    
    67   33  101 1    
    68   33  102 1    
    69   33  103 1    
    70   34   35 am   BACKBONE|DICT|INTERRES
    71   34  104 1    
    72   35   36 2    
    73   37   38 2    
    74   37   39 am   BACKBONE|DICT|INTERRES
    75   39   40 1    
    76   39  105 1    
    77   40   41 1    
    78   40   42 1    
    79   40  106 1    
    80   41  107 1    
    81   41  108 1    
    82   41  109 1    
    83   42   43 2    
    84   42   44 am   BACKBONE|DICT|INTERRES
    85   44   45 1    
    86   44  110 1    
    87   45   46 1    
    88   45   47 1    
    89   45  111 1    
    90   46  112 1    
    91   46  113 1    
    92   46  114 1    
    93   47   48 2    
    94   47   49 am   BACKBONE|DICT|INTERRES
    95   49   50 1    
    96   49  115 1    
    97   50   51 1    
    98   50   52 1    
    99   50  116 1    
   100   51  117 1    
   101   51  118 1    
   102   51  119 1    
   103   52   53 2    
   104   52   54 am   BACKBONE|DICT|INTERRES
   105   54   55 1    
   106   54  120 1    
   107   55   56 1    
   108   55   57 1    
   109   55  121 1    
   110   56  122 1    
   111   56  123 1    
   112   56  124 1    
   113   57   58 2    
   114   57   59 am   BACKBONE|DICT|INTERRES
   115   59   60 1    
   116   59  125 1    
   117   60   61 1    
   118   60   62 1    
   119   60  126 1    
   120   61  127 1    
   121   61  128 1    
   122   61  129 1    
   123   62   63 2    
   124   62   64 am   BACKBONE|DICT|INTERRES
   125   64   65 1    
   126   64  130 1    
   127   65   66 1    
   128   65   69 1    
   129   65  131 1    
   130   66   67 am   BACKBONE|DICT|INTERRES
   131   66   68 2    
   132   67  132 1    
   133   67  133 1    
   134   69   70 1    
   135   69  134 1    
   136   69  135 1    
   137   70   71 1    
   138   71  136 1    
   139   71  137 1    
@<TRIPOS>SUBSTRUCTURE
     1 UNK         1 GROUP             0       ****    0 ROOT    
