@<TRIPOS>MOLECULE
3R137
137   139    1
SMALL
USER_CHARGES


@<TRIPOS>ATOM
      1 CA         30.3627   -5.5801   -6.5057 C.3       0 UNK        -0.2020 
      2 C          29.5467   -6.0985   -5.3327 C.2       0 UNK         0.4855 
      3 O          29.8985   -7.1193   -4.7410 O.2       0 UNK        -0.5197 
      4 N          28.4553   -5.4057   -4.9996 N.am      1 UNK        -0.4892 
      5 CA         27.5056   -5.7483   -3.9434 C.3       1 UNK         0.0835 
      6 C6         28.0787   -5.5342   -2.5112 C.3       12 UNK        -0.0855 
      7 S7         28.2912   -3.7869   -2.0317 S.3       12 UNK        -0.2931 
      8 C8         30.0794   -3.5214   -2.2871 C.3       12 UNK         0.0378 
      9 C9         30.4350   -2.0376   -2.3335 C.ar      12 UNK        -0.0802 
     10 C10        31.2988   -1.5472   -3.3186 C.ar      12 UNK        -0.0944 
     11 C11        31.5904   -0.1805   -3.3933 C.ar      12 UNK        -0.0787 
     12 C12        31.0004    0.7031   -2.4830 C.ar      12 UNK        -0.0862 
     13 C13        30.1420    0.2251   -1.4886 C.ar      12 UNK        -0.0733 
     14 C14        29.8899   -1.1462   -1.4045 C.ar      12 UNK        -0.0832 
     15 C15        29.4822    1.1726   -0.4956 C.3       12 UNK         0.0240 
     16 S16        27.6636    1.0322   -0.5446 S.3       12 UNK        -0.2522 
     17 C17        27.1754    2.4228   -1.6163 C.3       12 UNK        -0.0967 
     18 CA         27.6721    2.3456   -3.0828 C.3       5 UNK         0.0660 
     19 N          27.3688    1.0615   -3.7312 N.am      5 UNK        -0.4015 
     20 C          27.7504    0.7315   -4.9745 C.2       4 UNK         0.4946 
     21 O          28.4178    1.4684   -5.6974 O.2       4 UNK        -0.5353 
     22 CA         27.2461   -0.5978   -5.5641 C.3       4 UNK         0.0277 
     23 CB         28.2831   -1.7039   -5.3348 C.3       4 UNK        -0.1981 
     24 N          25.9158   -1.0474   -5.1236 N.am      4 UNK        -0.4209 
     25 C          24.7983   -0.3006   -5.1069 C.2       3 UNK         0.4942 
     26 O          24.7868    0.9022   -5.3787 O.2       3 UNK        -0.5208 
     27 CA         23.4593   -0.9766   -4.7558 C.3       3 UNK         0.0250 
     28 CB         22.4067   -0.6819   -5.8400 C.3       3 UNK        -0.1990 
     29 N          23.5417   -2.4272   -4.5707 N.am      3 UNK        -0.4232 
     30 C          23.8960   -3.0514   -3.4400 C.2       2 UNK         0.4993 
     31 O          24.2551   -2.4640   -2.4192 O.2       2 UNK        -0.5286 
     32 CA         23.8394   -4.5943   -3.4406 C.3       2 UNK         0.0209 
     33 CB         23.0303   -5.1962   -4.6139 C.3       2 UNK        -0.1931 
     34 N          25.1742   -5.2035   -3.3790 N.am      2 UNK        -0.4546 
     35 C          26.1927   -4.9859   -4.2239 C.2       1 UNK         0.5154 
     36 O          26.1260   -4.2187   -5.1914 O.2       1 UNK        -0.5181 
     37 C          27.1353    3.5690   -3.8618 C.2       5 UNK         0.5014 
     38 O          27.7542    4.6329   -3.8025 O.2       5 UNK        -0.5248 
     39 N          26.0024    3.4033   -4.5596 N.am      6 UNK        -0.4434 
     40 CA         25.3824    4.4262   -5.4010 C.3       6 UNK         0.0363 
     41 CB         23.8726    4.4688   -5.1121 C.3       6 UNK        -0.1936 
     42 C          25.6307    4.1474   -6.8904 C.2       6 UNK         0.5081 
     43 O          25.8759    5.0875   -7.6465 O.2       6 UNK        -0.5248 
     44 N          25.5469    2.8717   -7.2934 N.am      7 UNK        -0.4718 
     45 CA         25.6487    2.4350   -8.6885 C.3       7 UNK         0.0273 
     46 CB         25.0267    1.0338   -8.8177 C.3       7 UNK        -0.1935 
     47 C          27.0797    2.4413   -9.2555 C.2       7 UNK         0.5018 
     48 O          27.2275    2.4499  -10.4778 O.2       7 UNK        -0.5186 
     49 N          28.0949    2.3947   -8.3782 N.am      8 UNK        -0.4240 
     50 CA         29.5298    2.2595   -8.6737 C.3       8 UNK         0.0235 
     51 CB         30.0607    3.4682   -9.4731 C.3       8 UNK        -0.2000 
     52 C          29.9015    0.9073   -9.3192 C.2       8 UNK         0.4941 
     53 O          30.9534    0.8017   -9.9547 O.2       8 UNK        -0.5273 
     54 N          29.0382   -0.1043   -9.1433 N.am      9 UNK        -0.4262 
     55 CA         29.1612   -1.4536   -9.6934 C.3       9 UNK         0.0264 
     56 CB         27.8920   -2.2563   -9.3583 C.3       9 UNK        -0.1955 
     57 C          30.4268   -2.1590   -9.1818 C.2       9 UNK         0.5031 
     58 O          30.4788   -2.5385   -8.0118 O.2       9 UNK        -0.5390 
     59 N          31.4230   -2.2815  -10.0705 N.am      10 UNK        -0.4204 
     60 CA         32.7672   -2.8257   -9.8382 C.3       10 UNK         0.0237 
     61 CB         32.7031   -4.3204   -9.4553 C.3       10 UNK        -0.1985 
     62 C          33.6255   -2.0006   -8.8543 C.2       10 UNK         0.4970 
     63 O          34.6247   -2.5204   -8.3538 O.2       10 UNK        -0.4914 
     64 N          33.2562   -0.7348   -8.6114 N.am      11 UNK        -0.4285 
     65 CA         33.9960    0.1892   -7.7350 C.3       11 UNK         0.1007 
     66 C          35.2077    0.8819   -8.4233 C.2       11 UNK         0.5703 
     67 N          35.3928    0.7612   -9.7331 N.am      11 UNK        -0.7361 
     68 O          36.0055    1.5320   -7.7518 O.2       11 UNK        -0.4986 
     69 C69        33.0626    1.2312   -7.0658 C.3       12 UNK        -0.0947 
     70 S70        31.7389    0.4639   -6.0745 S.3       12 UNK        -0.2240 
     71 C71        32.5486    0.3398   -4.4538 C.3       12 UNK         0.0194 
     72 H72        29.7568   -4.9667   -7.1722 H         1 UNK         0.0906 
     73 H73        31.1952   -4.9748   -6.1478 H         1 UNK         0.0906 
     74 H74        30.7656   -6.4085   -7.0879 H         1 UNK         0.0906 
     75 H75        28.1594   -4.6033   -5.5429 H         1 UNK         0.3140 
     76 H76        27.2678   -6.8083   -4.0580 H         1 UNK         0.1085 
     77 H77        29.0288   -6.0579   -2.3979 H         1 UNK         0.0836 
     78 H78        27.4165   -5.9956   -1.7772 H         1 UNK         0.0836 
     79 H79        30.3785   -4.0068   -3.2171 H         1 UNK         0.0731 
     80 H80        30.6373   -4.0038   -1.4837 H         1 UNK         0.0731 
     81 H81        31.7366   -2.2241   -4.0397 H         1 UNK         0.1312 
     82 H82        31.2117    1.7615   -2.5493 H         1 UNK         0.1406 
     83 H83        29.2287   -1.5150   -0.6320 H         1 UNK         0.1631 
     84 H84        29.7829    2.2067   -0.6702 H         1 UNK         0.0717 
     85 H85        29.8250    0.9184    0.5082 H         1 UNK         0.0717 
     86 H86        26.0848    2.4744   -1.5905 H         1 UNK         0.0934 
     87 H87        27.5262    3.3443   -1.1467 H         1 UNK         0.0934 
     88 H88        28.7591    2.4384   -3.0778 H         1 UNK         0.0739 
     89 H89        26.8296    0.3994   -3.1928 H         1 UNK         0.3093 
     90 H90        27.1720   -0.4432   -6.6404 H         1 UNK         0.0818 
     91 H91        28.0600   -2.5901   -5.9252 H         1 UNK         0.0819 
     92 H92        29.2822   -1.3756   -5.6265 H         1 UNK         0.0819 
     93 H93        28.3277   -1.9930   -4.2869 H         1 UNK         0.0819 
     94 H94        25.8283   -2.0350   -4.9122 H         1 UNK         0.3041 
     95 H95        23.1157   -0.5247   -3.8228 H         1 UNK         0.0784 
     96 H96        22.2543    0.3917   -5.9616 H         1 UNK         0.0793 
     97 H97        22.7053   -1.0794   -6.8110 H         1 UNK         0.0793 
     98 H98        21.4392   -1.1134   -5.5824 H         1 UNK         0.0793 
     99 H99        23.3080   -2.9973   -5.3711 H         1 UNK         0.3024 
    100 H100       23.3274   -4.8701   -2.5169 H         1 UNK         0.1171 
    101 H101       22.9227   -6.2748   -4.4970 H         1 UNK         0.0786 
    102 H102       22.0220   -4.7814   -4.6535 H         1 UNK         0.0786 
    103 H103       23.5030   -5.0204   -5.5808 H         1 UNK         0.0786 
    104 H104       25.3331   -5.8130   -2.5888 H         1 UNK         0.2977 
    105 H105       25.5820    2.4785   -4.5969 H         1 UNK         0.3127 
    106 H106       25.7965    5.4107   -5.1729 H         1 UNK         0.0770 
    107 H107       23.3928    3.5105   -5.3168 H         1 UNK         0.0814 
    108 H108       23.3783    5.2206   -5.7289 H         1 UNK         0.0814 
    109 H109       23.6771    4.7246   -4.0707 H         1 UNK         0.0814 
    110 H110       25.3056    2.1577   -6.6094 H         1 UNK         0.2983 
    111 H111       25.0607    3.1217   -9.3018 H         1 UNK         0.0947 
    112 H112       23.9849    1.0322   -8.4959 H         1 UNK         0.0806 
    113 H113       25.5596    0.2946   -8.2206 H         1 UNK         0.0806 
    114 H114       25.0449    0.6909   -9.8532 H         1 UNK         0.0806 
    115 H115       27.8727    2.3468   -7.3872 H         1 UNK         0.3000 
    116 H116       30.0292    2.2725   -7.7048 H         1 UNK         0.0850 
    117 H117       29.7871    4.4096   -8.9969 H         1 UNK         0.0810 
    118 H118       29.6762    3.4818  -10.4932 H         1 UNK         0.0810 
    119 H119       31.1491    3.4438   -9.5392 H         1 UNK         0.0810 
    120 H120       28.2280    0.0770   -8.5731 H         1 UNK         0.3040 
    121 H121       29.2204   -1.3619  -10.7800 H         1 UNK         0.0766 
    122 H122       27.9511   -3.2649   -9.7694 H         1 UNK         0.0812 
    123 H123       27.0016   -1.7877   -9.7780 H         1 UNK         0.0812 
    124 H124       27.7442   -2.3547   -8.2831 H         1 UNK         0.0812 
    125 H125       31.2752   -1.8875  -10.9901 H         1 UNK         0.3205 
    126 H126       33.2811   -2.7601  -10.7983 H         1 UNK         0.0754 
    127 H127       33.6967   -4.7701   -9.4597 H         1 UNK         0.0769 
    128 H128       32.0907   -4.8859  -10.1577 H         1 UNK         0.0769 
    129 H129       32.2890   -4.4633   -8.4574 H         1 UNK         0.0769 
    130 H130       32.4319   -0.3562   -9.0650 H         1 UNK         0.2981 
    131 H131       34.4305   -0.4005   -6.9255 H         1 UNK         0.0541 
    132 H132       36.1856    1.2107  -10.1633 H         1 UNK         0.3459 
    133 H133       34.7421    0.2368  -10.2948 H         1 UNK         0.3459 
    134 H134       33.6290    1.9071   -6.4225 H         1 UNK         0.0612 
    135 H135       32.5964    1.8605   -7.8253 H         1 UNK         0.0612 
    136 H136       32.9359    1.3185   -4.1667 H         1 UNK         0.0624 
    137 H137       33.4095   -0.3256   -4.5311 H         1 UNK         0.0624 
@<TRIPOS>BOND
     1    1    2 1    
     2    1   72 1    
     3    1   73 1    
     4    1   74 1    
     5    2    3 2    
     6    2    4 am   BACKBONE|DICT|INTERRES
     7    4    5 1    
     8    4   75 1    
     9    5    6 1    
    10    5   35 1    
    11    5   76 1    
    12    6    7 1    
    13    6   77 1    
    14    6   78 1    
    15    7    8 1    
    16    8    9 1    
    17    8   79 1    
    18    8   80 1    
    19    9   10 ar   
    20    9   14 ar   
    21   10   11 ar   
    22   10   81 1    
    23   11   12 ar   
    24   11   71 1    
    25   12   13 ar   
    26   12   82 1    
    27   13   14 ar   
    28   13   15 1    
    29   14   83 1    
    30   15   16 1    
    31   15   84 1    
    32   15   85 1    
    33   16   17 1    
    34   17   18 1    
    35   17   86 1    
    36   17   87 1    
    37   18   19 1    
    38   18   37 1    
    39   18   88 1    
    40   19   20 am   BACKBONE|DICT|INTERRES
    41   19   89 1    
    42   20   21 2    
    43   20   22 1    
    44   22   23 1    
    45   22   24 1    
    46   22   90 1    
    47   23   91 1    
    48   23   92 1    
    49   23   93 1    
    50   24   25 am   BACKBONE|DICT|INTERRES
    51   24   94 1    
    52   25   26 2    
    53   25   27 1    
    54   27   28 1    
    55   27   29 1    
    56   27   95 1    
    57   28   96 1    
    58   28   97 1    
    59   28   98 1    
    60   29   30 am   BACKBONE|DICT|INTERRES
    61   29   99 1    
    62   30   31 2    
    63   30   32 1    
    64   32   33 1    
    65   32   34 1    
    66   32  100 1    
    67   33  101 1    
    68   33  102 1    
    69   33  103 1    
    70   34   35 am   BACKBONE|DICT|INTERRES
    71   34  104 1    
    72   35   36 2    
    73   37   38 2    
    74   37   39 am   BACKBONE|DICT|INTERRES
    75   39   40 1    
    76   39  105 1    
    77   40   41 1    
    78   40   42 1    
    79   40  106 1    
    80   41  107 1    
    81   41  108 1    
    82   41  109 1    
    83   42   43 2    
    84   42   44 am   BACKBONE|DICT|INTERRES
    85   44   45 1    
    86   44  110 1    
    87   45   46 1    
    88   45   47 1    
    89   45  111 1    
    90   46  112 1    
    91   46  113 1    
    92   46  114 1    
    93   47   48 2    
    94   47   49 am   BACKBONE|DICT|INTERRES
    95   49   50 1    
    96   49  115 1    
    97   50   51 1    
    98   50   52 1    
    99   50  116 1    
   100   51  117 1    
   101   51  118 1    
   102   51  119 1    
   103   52   53 2    
   104   52   54 am   BACKBONE|DICT|INTERRES
   105   54   55 1    
   106   54  120 1    
   107   55   56 1    
   108   55   57 1    
   109   55  121 1    
   110   56  122 1    
   111   56  123 1    
   112   56  124 1    
   113   57   58 2    
   114   57   59 am   BACKBONE|DICT|INTERRES
   115   59   60 1    
   116   59  125 1    
   117   60   61 1    
   118   60   62 1    
   119   60  126 1    
   120   61  127 1    
   121   61  128 1    
   122   61  129 1    
   123   62   63 2    
   124   62   64 am   BACKBONE|DICT|INTERRES
   125   64   65 1    
   126   64  130 1    
   127   65   66 1    
   128   65   69 1    
   129   65  131 1    
   130   66   67 am   BACKBONE|DICT|INTERRES
   131   66   68 2    
   132   67  132 1    
   133   67  133 1    
   134   69   70 1    
   135   69  134 1    
   136   69  135 1    
   137   70   71 1    
   138   71  136 1    
   139   71  137 1    
@<TRIPOS>SUBSTRUCTURE
     1 UNK         1 GROUP             0       ****    0 ROOT    
