@<TRIPOS>MOLECULE
3R137
137   139    1
SMALL
USER_CHARGES


@<TRIPOS>ATOM
      1 CA         26.2272   -6.2221   -4.7671 C.3       0 UNK        -0.2020 
      2 C          25.8614   -5.2428   -3.6627 C.2       0 UNK         0.4855 
      3 O          24.6928   -4.8740   -3.5503 O.2       0 UNK        -0.5197 
      4 N          26.8596   -4.8188   -2.8730 N.am      1 UNK        -0.4892 
      5 CA         26.8062   -3.9511   -1.6845 C.3       1 UNK         0.0835 
      6 C6         28.2240   -3.4517   -1.2974 C.3       12 UNK        -0.0855 
      7 S7         29.4773   -4.7718   -1.1554 S.3       12 UNK        -0.2931 
      8 C8         31.0152   -3.7995   -0.9675 C.3       12 UNK         0.0378 
      9 C9         31.1942   -2.7600   -2.0692 C.ar      12 UNK        -0.0802 
     10 C10        31.3581   -3.1626   -3.3981 C.ar      12 UNK        -0.0944 
     11 C11        31.4595   -2.2148   -4.4206 C.ar      12 UNK        -0.0787 
     12 C12        31.4002   -0.8551   -4.1058 C.ar      12 UNK        -0.0862 
     13 C13        31.2506   -0.4358   -2.7796 C.ar      12 UNK        -0.0733 
     14 C14        31.1606   -1.3943   -1.7641 C.ar      12 UNK        -0.0832 
     15 C15        31.1935    1.0554   -2.4582 C.3       12 UNK         0.0240 
     16 S16        29.7049    1.5747   -1.5278 S.3       12 UNK        -0.2522 
     17 C17        28.3250    0.6603   -2.3009 C.3       12 UNK        -0.0967 
     18 CA         28.1891    0.8302   -3.8356 C.3       5 UNK         0.0660 
     19 N          27.6045   -0.3645   -4.4482 N.am      5 UNK        -0.4015 
     20 C          27.8841   -0.7876   -5.6860 C.2       4 UNK         0.4946 
     21 O          28.7343   -0.2655   -6.4026 O.2       4 UNK        -0.5353 
     22 CA         27.1014   -1.9938   -6.2307 C.3       4 UNK         0.0277 
     23 CB         27.9336   -3.2770   -6.1024 C.3       4 UNK        -0.1981 
     24 N          25.7801   -2.2004   -5.6262 N.am      4 UNK        -0.4209 
     25 C          24.7220   -1.4052   -5.8363 C.2       3 UNK         0.4942 
     26 O          24.7869   -0.3302   -6.4304 O.2       3 UNK        -0.5208 
     27 CA         23.3679   -1.8949   -5.3010 C.3       3 UNK         0.0250 
     28 CB         22.8744   -3.1191   -6.0904 C.3       3 UNK        -0.1990 
     29 N          23.4461   -2.2226   -3.8787 N.am      3 UNK        -0.4232 
     30 C          23.2982   -1.3235   -2.8953 C.2       2 UNK         0.4993 
     31 O          22.9683   -0.1520   -3.0818 O.2       2 UNK        -0.5286 
     32 CA         23.5986   -1.7926   -1.4575 C.3       2 UNK         0.0209 
     33 CB         22.3118   -2.2788   -0.7713 C.3       2 UNK        -0.1931 
     34 N          24.6278   -2.8363   -1.3552 N.am      2 UNK        -0.4546 
     35 C          25.8681   -2.7372   -1.8540 C.2       1 UNK         0.5154 
     36 O          26.2688   -1.7498   -2.4708 O.2       1 UNK        -0.5181 
     37 C          27.4107    2.1027   -4.2255 C.2       5 UNK         0.5014 
     38 O          27.9990    3.1844   -4.2331 O.2       5 UNK        -0.5248 
     39 N          26.1199    1.9643   -4.5712 N.am      6 UNK        -0.4434 
     40 CA         25.3087    3.0386   -5.1482 C.3       6 UNK         0.0363 
     41 CB         23.8126    2.7195   -4.9944 C.3       6 UNK        -0.1936 
     42 C          25.6929    3.2619   -6.6184 C.2       6 UNK         0.5081 
     43 O          26.0315    4.3822   -7.0007 O.2       6 UNK        -0.5248 
     44 N          25.7203    2.1755   -7.4013 N.am      7 UNK        -0.4718 
     45 CA         26.2610    2.1254   -8.7610 C.3       7 UNK         0.0273 
     46 CB         25.5386    1.0103   -9.5400 C.3       7 UNK        -0.1935 
     47 C          27.7879    1.9218   -8.7181 C.2       7 UNK         0.5018 
     48 O          28.2929    0.9478   -9.2800 O.2       7 UNK        -0.5186 
     49 N          28.4837    2.8462   -8.0349 N.am      8 UNK        -0.4240 
     50 CA         29.8934    2.7896   -7.6160 C.3       8 UNK         0.0235 
     51 CB         30.2810    4.1332   -6.9788 C.3       8 UNK        -0.2000 
     52 C          30.9147    2.4033   -8.6992 C.2       8 UNK         0.4941 
     53 O          31.9477    1.8191   -8.3683 O.2       8 UNK        -0.5273 
     54 N          30.5903    2.6846   -9.9701 N.am      9 UNK        -0.4262 
     55 CA         31.3237    2.2553  -11.1645 C.3       9 UNK         0.0264 
     56 CB         30.5991    2.7774  -12.4152 C.3       9 UNK        -0.1955 
     57 C          31.5395    0.7317  -11.2659 C.2       9 UNK         0.5031 
     58 O          32.5127    0.3160  -11.8963 O.2       9 UNK        -0.5390 
     59 N          30.6879   -0.0691  -10.6032 N.am      10 UNK        -0.4204 
     60 CA         30.8425   -1.5187  -10.4312 C.3       10 UNK         0.0237 
     61 CB         29.6372   -2.0639   -9.6471 C.3       10 UNK        -0.1985 
     62 C          32.1586   -1.9408   -9.7446 C.2       10 UNK         0.4970 
     63 O          32.6229   -3.0545   -9.9914 O.2       10 UNK        -0.4914 
     64 N          32.7388   -1.0506   -8.9295 N.am      11 UNK        -0.4285 
     65 CA         34.0636   -1.1901   -8.3073 C.3       11 UNK         0.1007 
     66 C          35.0291   -0.0480   -8.7435 C.2       11 UNK         0.5703 
     67 N          34.8009    0.6208   -9.8692 N.am      11 UNK        -0.7361 
     68 O          36.0233    0.2235   -8.0739 O.2       11 UNK        -0.4986 
     69 C69        33.9528   -1.3527   -6.7650 C.3       12 UNK        -0.0947 
     70 S70        33.3318   -3.0048   -6.3039 S.3       12 UNK        -0.2240 
     71 C71        31.6017   -2.6655   -5.8662 C.3       12 UNK         0.0194 
     72 H72        25.8222   -7.2076   -4.5389 H         1 UNK         0.0906 
     73 H73        25.8049   -5.8956   -5.7170 H         1 UNK         0.0906 
     74 H74        27.3060   -6.3171   -4.8896 H         1 UNK         0.0906 
     75 H75        27.7875   -5.1806   -3.0466 H         1 UNK         0.3140 
     76 H76        26.4279   -4.5605   -0.8617 H         1 UNK         0.1085 
     77 H77        28.5760   -2.7504   -2.0548 H         1 UNK         0.0836 
     78 H78        28.1960   -2.8999   -0.3556 H         1 UNK         0.0836 
     79 H79        31.8680   -4.4796   -0.9749 H         1 UNK         0.0731 
     80 H80        31.0114   -3.3243    0.0147 H         1 UNK         0.0731 
     81 H81        31.3850   -4.2168   -3.6380 H         1 UNK         0.1312 
     82 H82        31.4605   -0.1234   -4.8999 H         1 UNK         0.1406 
     83 H83        31.0350   -1.0717   -0.7393 H         1 UNK         0.1631 
     84 H84        31.2526    1.6498   -3.3713 H         1 UNK         0.0717 
     85 H85        32.0756    1.3201   -1.8739 H         1 UNK         0.0717 
     86 H86        28.4930   -0.3884   -2.0578 H         1 UNK         0.0934 
     87 H87        27.3952    0.9201   -1.7910 H         1 UNK         0.0934 
     88 H88        29.1856    0.9549   -4.2574 H         1 UNK         0.0739 
     89 H89        26.9607   -0.8992   -3.8651 H         1 UNK         0.3093 
     90 H90        26.9437   -1.8071   -7.2958 H         1 UNK         0.0818 
     91 H91        28.2047   -3.4847   -5.0667 H         1 UNK         0.0819 
     92 H92        27.4037   -4.1397   -6.5039 H         1 UNK         0.0819 
     93 H93        28.8573   -3.1847   -6.6722 H         1 UNK         0.0819 
     94 H94        25.6482   -3.0397   -5.0823 H         1 UNK         0.3041 
     95 H95        22.6420   -1.0920   -5.4490 H         1 UNK         0.0784 
     96 H96        22.8164   -2.8977   -7.1571 H         1 UNK         0.0793 
     97 H97        23.5333   -3.9797   -5.9702 H         1 UNK         0.0793 
     98 H98        21.8768   -3.4181   -5.7680 H         1 UNK         0.0793 
     99 H99        23.7458   -3.1638   -3.6355 H         1 UNK         0.3024 
    100 H100       23.9693   -0.9207   -0.9139 H         1 UNK         0.1171 
    101 H101       22.4834   -2.5065    0.2809 H         1 UNK         0.0786 
    102 H102       21.5344   -1.5144   -0.8123 H         1 UNK         0.0786 
    103 H103       21.9139   -3.1746   -1.2499 H         1 UNK         0.0786 
    104 H104       24.3512   -3.7008   -0.9122 H         1 UNK         0.2977 
    105 H105       25.7146    1.0389   -4.5780 H         1 UNK         0.3127 
    106 H106       25.5112    3.9627   -4.6022 H         1 UNK         0.0770 
    107 H107       23.5297    1.8025   -5.5112 H         1 UNK         0.0814 
    108 H108       23.2004    3.5244   -5.4028 H         1 UNK         0.0814 
    109 H109       23.5393    2.6049   -3.9453 H         1 UNK         0.0814 
    110 H110       25.4315    1.2815   -7.0056 H         1 UNK         0.2983 
    111 H111       26.0666    3.0725   -9.2690 H         1 UNK         0.0947 
    112 H112       25.8890    0.9632  -10.5718 H         1 UNK         0.0806 
    113 H113       24.4624    1.1802   -9.5695 H         1 UNK         0.0806 
    114 H114       25.7100    0.0307   -9.0912 H         1 UNK         0.0806 
    115 H115       27.9388    3.5989   -7.6300 H         1 UNK         0.3000 
    116 H116       29.9557    2.0219   -6.8429 H         1 UNK         0.0850 
    117 H117       31.3126    4.1155   -6.6239 H         1 UNK         0.0810 
    118 H118       29.6506    4.3621   -6.1193 H         1 UNK         0.0810 
    119 H119       30.1931    4.9562   -7.6891 H         1 UNK         0.0810 
    120 H120       29.7103    3.1530  -10.1288 H         1 UNK         0.3040 
    121 H121       32.3118    2.7178  -11.1192 H         1 UNK         0.0766 
    122 H122       30.5265    3.8651  -12.4087 H         1 UNK         0.0812 
    123 H123       29.5895    2.3719  -12.4947 H         1 UNK         0.0812 
    124 H124       31.1355    2.4965  -13.3229 H         1 UNK         0.0812 
    125 H125       29.9003    0.3573  -10.1162 H         1 UNK         0.3205 
    126 H126       30.8376   -1.9668  -11.4266 H         1 UNK         0.0754 
    127 H127       29.7088   -3.1441   -9.5127 H         1 UNK         0.0769 
    128 H128       28.7004   -1.8619  -10.1670 H         1 UNK         0.0769 
    129 H129       29.5694   -1.6136   -8.6558 H         1 UNK         0.0769 
    130 H130       32.3070   -0.1401   -8.8023 H         1 UNK         0.2981 
    131 H131       34.5506   -2.0870   -8.6935 H         1 UNK         0.0541 
    132 H132       35.4404    1.3502  -10.1405 H         1 UNK         0.3459 
    133 H133       34.0181    0.3884  -10.4677 H         1 UNK         0.3459 
    134 H134       33.3259   -0.5702   -6.3363 H         1 UNK         0.0612 
    135 H135       34.9285   -1.2538   -6.2870 H         1 UNK         0.0612 
    136 H136       31.1779   -1.9271   -6.5490 H         1 UNK         0.0624 
    137 H137       31.0338   -3.5840   -6.0154 H         1 UNK         0.0624 
@<TRIPOS>BOND
     1    1    2 1    
     2    1   72 1    
     3    1   73 1    
     4    1   74 1    
     5    2    3 2    
     6    2    4 am   BACKBONE|DICT|INTERRES
     7    4    5 1    
     8    4   75 1    
     9    5    6 1    
    10    5   35 1    
    11    5   76 1    
    12    6    7 1    
    13    6   77 1    
    14    6   78 1    
    15    7    8 1    
    16    8    9 1    
    17    8   79 1    
    18    8   80 1    
    19    9   10 ar   
    20    9   14 ar   
    21   10   11 ar   
    22   10   81 1    
    23   11   12 ar   
    24   11   71 1    
    25   12   13 ar   
    26   12   82 1    
    27   13   14 ar   
    28   13   15 1    
    29   14   83 1    
    30   15   16 1    
    31   15   84 1    
    32   15   85 1    
    33   16   17 1    
    34   17   18 1    
    35   17   86 1    
    36   17   87 1    
    37   18   19 1    
    38   18   37 1    
    39   18   88 1    
    40   19   20 am   BACKBONE|DICT|INTERRES
    41   19   89 1    
    42   20   21 2    
    43   20   22 1    
    44   22   23 1    
    45   22   24 1    
    46   22   90 1    
    47   23   91 1    
    48   23   92 1    
    49   23   93 1    
    50   24   25 am   BACKBONE|DICT|INTERRES
    51   24   94 1    
    52   25   26 2    
    53   25   27 1    
    54   27   28 1    
    55   27   29 1    
    56   27   95 1    
    57   28   96 1    
    58   28   97 1    
    59   28   98 1    
    60   29   30 am   BACKBONE|DICT|INTERRES
    61   29   99 1    
    62   30   31 2    
    63   30   32 1    
    64   32   33 1    
    65   32   34 1    
    66   32  100 1    
    67   33  101 1    
    68   33  102 1    
    69   33  103 1    
    70   34   35 am   BACKBONE|DICT|INTERRES
    71   34  104 1    
    72   35   36 2    
    73   37   38 2    
    74   37   39 am   BACKBONE|DICT|INTERRES
    75   39   40 1    
    76   39  105 1    
    77   40   41 1    
    78   40   42 1    
    79   40  106 1    
    80   41  107 1    
    81   41  108 1    
    82   41  109 1    
    83   42   43 2    
    84   42   44 am   BACKBONE|DICT|INTERRES
    85   44   45 1    
    86   44  110 1    
    87   45   46 1    
    88   45   47 1    
    89   45  111 1    
    90   46  112 1    
    91   46  113 1    
    92   46  114 1    
    93   47   48 2    
    94   47   49 am   BACKBONE|DICT|INTERRES
    95   49   50 1    
    96   49  115 1    
    97   50   51 1    
    98   50   52 1    
    99   50  116 1    
   100   51  117 1    
   101   51  118 1    
   102   51  119 1    
   103   52   53 2    
   104   52   54 am   BACKBONE|DICT|INTERRES
   105   54   55 1    
   106   54  120 1    
   107   55   56 1    
   108   55   57 1    
   109   55  121 1    
   110   56  122 1    
   111   56  123 1    
   112   56  124 1    
   113   57   58 2    
   114   57   59 am   BACKBONE|DICT|INTERRES
   115   59   60 1    
   116   59  125 1    
   117   60   61 1    
   118   60   62 1    
   119   60  126 1    
   120   61  127 1    
   121   61  128 1    
   122   61  129 1    
   123   62   63 2    
   124   62   64 am   BACKBONE|DICT|INTERRES
   125   64   65 1    
   126   64  130 1    
   127   65   66 1    
   128   65   69 1    
   129   65  131 1    
   130   66   67 am   BACKBONE|DICT|INTERRES
   131   66   68 2    
   132   67  132 1    
   133   67  133 1    
   134   69   70 1    
   135   69  134 1    
   136   69  135 1    
   137   70   71 1    
   138   71  136 1    
   139   71  137 1    
@<TRIPOS>SUBSTRUCTURE
     1 UNK         1 GROUP             0       ****    0 ROOT    
