@<TRIPOS>MOLECULE
3R137
137   139    1
SMALL
USER_CHARGES


@<TRIPOS>ATOM
      1 CA         23.7803   -4.3985   -0.4022 C.3       0 UNK        -0.2020 
      2 C          25.2620   -4.1634   -0.1486 C.2       0 UNK         0.4855 
      3 O          25.7288   -4.3430    0.9764 O.2       0 UNK        -0.5197 
      4 N          26.0034   -3.7613   -1.1841 N.am      1 UNK        -0.4892 
      5 CA         27.4279   -3.4430   -1.1432 C.3       1 UNK         0.0835 
      6 C6         28.2980   -4.7173   -1.2909 C.3       12 UNK        -0.0855 
      7 S7         30.0788   -4.4442   -0.9752 S.3       12 UNK        -0.2931 
      8 C8         30.8589   -5.6075   -2.1419 C.3       12 UNK         0.0378 
      9 C9         30.9745   -5.0441   -3.5539 C.ar      12 UNK        -0.0802 
     10 C10        32.1552   -4.4204   -3.9739 C.ar      12 UNK        -0.0944 
     11 C11        32.2943   -3.9748   -5.2937 C.ar      12 UNK        -0.0787 
     12 C12        31.2229   -4.1124   -6.1829 C.ar      12 UNK        -0.0862 
     13 C13        30.0359   -4.7258   -5.7728 C.ar      12 UNK        -0.0733 
     14 C14        29.9271   -5.2048   -4.4652 C.ar      12 UNK        -0.0832 
     15 C15        28.8831   -4.9241   -6.7464 C.3       12 UNK         0.0240 
     16 S16        27.3990   -4.0020   -6.2356 S.3       12 UNK        -0.2522 
     17 C17        27.8484   -2.3040   -6.7192 C.3       12 UNK        -0.0967 
     18 CA         26.5891   -1.4395   -6.9645 C.3       5 UNK         0.0660 
     19 N          25.8231   -1.2294   -5.7314 N.am      5 UNK        -0.4015 
     20 C          24.5490   -0.8162   -5.6784 C.2       4 UNK         0.4946 
     21 O          23.8650   -0.5682   -6.6719 O.2       4 UNK        -0.5353 
     22 CA         23.9499   -0.6160   -4.2788 C.3       4 UNK         0.0277 
     23 CB         23.4677   -1.9538   -3.6930 C.3       4 UNK        -0.1981 
     24 N          24.9222    0.0035   -3.3756 N.am      4 UNK        -0.4209 
     25 C          25.1547    1.3229   -3.3120 C.2       3 UNK         0.4942 
     26 O          24.5180    2.1603   -3.9509 O.2       3 UNK        -0.5208 
     27 CA         26.2953    1.7952   -2.3920 C.3       3 UNK         0.0250 
     28 CB         25.7568    2.1108   -0.9873 C.3       3 UNK        -0.1990 
     29 N          27.3935    0.8314   -2.2849 N.am      3 UNK        -0.4232 
     30 C          28.2245    0.5085   -3.2864 C.2       2 UNK         0.4993 
     31 O          28.1863    1.0254   -4.3997 O.2       2 UNK        -0.5286 
     32 CA         29.2510   -0.6023   -3.0112 C.3       2 UNK         0.0209 
     33 CB         30.5462    0.0075   -2.4603 C.3       2 UNK        -0.1931 
     34 N          28.7869   -1.6416   -2.0879 N.am      2 UNK        -0.4546 
     35 C          27.6877   -2.3910   -2.2365 C.2       1 UNK         0.5154 
     36 O          26.8798   -2.2474   -3.1617 O.2       1 UNK        -0.5181 
     37 C          26.9573   -0.1312   -7.6952 C.2       5 UNK         0.5014 
     38 O          27.3575   -0.2089   -8.8569 O.2       5 UNK        -0.5248 
     39 N          26.8086    1.0323   -7.0422 N.am      6 UNK        -0.4434 
     40 CA         27.1924    2.3750   -7.5014 C.3       6 UNK         0.0363 
     41 CB         26.7466    3.4120   -6.4577 C.3       6 UNK        -0.1936 
     42 C          26.7198    2.7993   -8.9038 C.2       6 UNK         0.5081 
     43 O          27.3340    3.6873   -9.4950 O.2       6 UNK        -0.5248 
     44 N          25.6691    2.1555   -9.4276 N.am      7 UNK        -0.4718 
     45 CA         25.2079    2.3010  -10.8102 C.3       7 UNK         0.0273 
     46 CB         23.8533    1.5899  -10.9602 C.3       7 UNK        -0.1935 
     47 C          26.2091    1.7768  -11.8618 C.2       7 UNK         0.5018 
     48 O          26.1366    2.2129  -13.0117 O.2       7 UNK        -0.5186 
     49 N          27.1052    0.8594  -11.4681 N.am      8 UNK        -0.4240 
     50 CA         28.1107    0.2430  -12.3373 C.3       8 UNK         0.0235 
     51 CB         27.6607   -1.1824  -12.7004 C.3       8 UNK        -0.2000 
     52 C          29.5159    0.2177  -11.7134 C.2       8 UNK         0.4941 
     53 O          30.4914    0.3398  -12.4557 O.2       8 UNK        -0.5273 
     54 N          29.6161    0.0454  -10.3891 N.am      9 UNK        -0.4262 
     55 CA         30.8706   -0.1164   -9.6586 C.3       9 UNK         0.0264 
     56 CB         31.2263   -1.6139   -9.5779 C.3       9 UNK        -0.1955 
     57 C          30.7357    0.5279   -8.2739 C.2       9 UNK         0.5031 
     58 O          30.3999   -0.1529   -7.3031 O.2       9 UNK        -0.5390 
     59 N          30.9898    1.8404   -8.2034 N.am      10 UNK        -0.4204 
     60 CA         31.0160    2.6227   -6.9643 C.3       10 UNK         0.0237 
     61 CB         30.7842    4.1081   -7.3017 C.3       10 UNK        -0.1985 
     62 C          32.3308    2.3867   -6.2000 C.2       10 UNK         0.4970 
     63 O          33.2080    3.2518   -6.1924 O.2       10 UNK        -0.4914 
     64 N          32.4483    1.1981   -5.6008 N.am      11 UNK        -0.4285 
     65 CA         33.6312    0.7093   -4.8715 C.3       11 UNK         0.1007 
     66 C          33.9419    1.4211   -3.5192 C.2       11 UNK         0.5703 
     67 N          33.1442    2.3770   -3.0585 N.am      11 UNK        -0.7361 
     68 O          34.9413    1.1066   -2.8771 O.2       11 UNK        -0.4986 
     69 C69        33.5834   -0.8332   -4.7069 C.3       12 UNK        -0.0947 
     70 S70        33.5324   -1.6891   -6.3123 S.3       12 UNK        -0.2240 
     71 C71        33.6277   -3.4263   -5.7871 C.3       12 UNK         0.0194 
     72 H72        23.5203   -4.2713   -1.4528 H         1 UNK         0.0906 
     73 H73        23.5052   -5.4108   -0.1072 H         1 UNK         0.0906 
     74 H74        23.1839   -3.6991    0.1828 H         1 UNK         0.0906 
     75 H75        25.5839   -3.5798   -2.0879 H         1 UNK         0.3140 
     76 H76        27.6460   -2.9736   -0.1808 H         1 UNK         0.1085 
     77 H77        27.9658   -5.4699   -0.5741 H         1 UNK         0.0836 
     78 H78        28.1406   -5.1632   -2.2708 H         1 UNK         0.0836 
     79 H79        31.8525   -5.8560   -1.7656 H         1 UNK         0.0731 
     80 H80        30.3029   -6.5464   -2.1524 H         1 UNK         0.0731 
     81 H81        32.9814   -4.3202   -3.2832 H         1 UNK         0.1312 
     82 H82        31.3280   -3.7653   -7.2017 H         1 UNK         0.1406 
     83 H83        29.0220   -5.7154   -4.1711 H         1 UNK         0.1631 
     84 H84        28.6365   -5.9859   -6.7878 H         1 UNK         0.0717 
     85 H85        29.1660   -4.6382   -7.7607 H         1 UNK         0.0717 
     86 H86        28.4846   -1.8641   -5.9500 H         1 UNK         0.0934 
     87 H87        28.4600   -2.3564   -7.6219 H         1 UNK         0.0934 
     88 H88        25.9436   -1.9858   -7.6559 H         1 UNK         0.0739 
     89 H89        26.2919   -1.4805   -4.8656 H         1 UNK         0.3093 
     90 H90        23.0822    0.0410   -4.3732 H         1 UNK         0.0818 
     91 H91        23.0522   -1.8234   -2.6936 H         1 UNK         0.0819 
     92 H92        22.6833   -2.3864   -4.3155 H         1 UNK         0.0819 
     93 H93        24.2712   -2.6875   -3.6326 H         1 UNK         0.0819 
     94 H94        25.5317   -0.6241   -2.8665 H         1 UNK         0.3041 
     95 H95        26.6991    2.7162   -2.8185 H         1 UNK         0.0784 
     96 H96        24.9530    2.8470   -1.0348 H         1 UNK         0.0793 
     97 H97        25.3560    1.2223   -0.4975 H         1 UNK         0.0793 
     98 H98        26.5356    2.5260   -0.3474 H         1 UNK         0.0793 
     99 H99        27.5101    0.3638   -1.3978 H         1 UNK         0.3024 
    100 H100       29.4757   -1.0865   -3.9638 H         1 UNK         0.1171 
    101 H101       30.3837    0.5189   -1.5107 H         1 UNK         0.0786 
    102 H102       31.3119   -0.7518   -2.3031 H         1 UNK         0.0786 
    103 H103       30.9462    0.7397   -3.1599 H         1 UNK         0.0786 
    104 H104       29.4027   -1.8584   -1.3162 H         1 UNK         0.2977 
    105 H105       26.5489    0.9726   -6.0671 H         1 UNK         0.3127 
    106 H106       28.2789    2.3785   -7.5409 H         1 UNK         0.0770 
    107 H107       25.6652    3.3990   -6.3161 H         1 UNK         0.0814 
    108 H108       27.0253    4.4221   -6.7613 H         1 UNK         0.0814 
    109 H109       27.2135    3.2316   -5.4899 H         1 UNK         0.0814 
    110 H110       25.2270    1.4385   -8.8695 H         1 UNK         0.2983 
    111 H111       25.0617    3.3657  -11.0054 H         1 UNK         0.0947 
    112 H112       23.4634    1.7017  -11.9730 H         1 UNK         0.0806 
    113 H113       23.1086    2.0052  -10.2809 H         1 UNK         0.0806 
    114 H114       23.9344    0.5209  -10.7584 H         1 UNK         0.0806 
    115 H115       27.0911    0.5543  -10.4972 H         1 UNK         0.3000 
    116 H116       28.1988    0.8155  -13.2633 H         1 UNK         0.0850 
    117 H117       28.3917   -1.6724  -13.3451 H         1 UNK         0.0810 
    118 H118       26.7113   -1.1726  -13.2361 H         1 UNK         0.0810 
    119 H119       27.5380   -1.8036  -11.8120 H         1 UNK         0.0810 
    120 H120       28.7716   -0.0476   -9.8229 H         1 UNK         0.3040 
    121 H121       31.6800    0.3963  -10.1829 H         1 UNK         0.0766 
    122 H122       32.1430   -1.7666   -9.0081 H         1 UNK         0.0812 
    123 H123       31.3869   -2.0370  -10.5694 H         1 UNK         0.0812 
    124 H124       30.4386   -2.1906   -9.0924 H         1 UNK         0.0812 
    125 H125       31.2669    2.3245   -9.0457 H         1 UNK         0.3205 
    126 H126       30.2023    2.2963   -6.3123 H         1 UNK         0.0754 
    127 H127       30.7815    4.7166   -6.3964 H         1 UNK         0.0769 
    128 H128       29.8240    4.2608   -7.7949 H         1 UNK         0.0769 
    129 H129       31.5613    4.5025   -7.9576 H         1 UNK         0.0769 
    130 H130       31.7046    0.5242   -5.7460 H         1 UNK         0.2981 
    131 H131       34.4935    0.9354   -5.5016 H         1 UNK         0.0541 
    132 H132       32.3453    2.6779   -3.5910 H         1 UNK         0.3459 
    133 H133       33.3707    2.8279   -2.1864 H         1 UNK         0.3459 
    134 H134       34.4607   -1.1938   -4.1668 H         1 UNK         0.0612 
    135 H135       32.7125   -1.1362   -4.1256 H         1 UNK         0.0612 
    136 H136       34.4039   -3.5339   -5.0279 H         1 UNK         0.0624 
    137 H137       33.9539   -4.0241   -6.6392 H         1 UNK         0.0624 
@<TRIPOS>BOND
     1    1    2 1    
     2    1   72 1    
     3    1   73 1    
     4    1   74 1    
     5    2    3 2    
     6    2    4 am   BACKBONE|DICT|INTERRES
     7    4    5 1    
     8    4   75 1    
     9    5    6 1    
    10    5   35 1    
    11    5   76 1    
    12    6    7 1    
    13    6   77 1    
    14    6   78 1    
    15    7    8 1    
    16    8    9 1    
    17    8   79 1    
    18    8   80 1    
    19    9   10 ar   
    20    9   14 ar   
    21   10   11 ar   
    22   10   81 1    
    23   11   12 ar   
    24   11   71 1    
    25   12   13 ar   
    26   12   82 1    
    27   13   14 ar   
    28   13   15 1    
    29   14   83 1    
    30   15   16 1    
    31   15   84 1    
    32   15   85 1    
    33   16   17 1    
    34   17   18 1    
    35   17   86 1    
    36   17   87 1    
    37   18   19 1    
    38   18   37 1    
    39   18   88 1    
    40   19   20 am   BACKBONE|DICT|INTERRES
    41   19   89 1    
    42   20   21 2    
    43   20   22 1    
    44   22   23 1    
    45   22   24 1    
    46   22   90 1    
    47   23   91 1    
    48   23   92 1    
    49   23   93 1    
    50   24   25 am   BACKBONE|DICT|INTERRES
    51   24   94 1    
    52   25   26 2    
    53   25   27 1    
    54   27   28 1    
    55   27   29 1    
    56   27   95 1    
    57   28   96 1    
    58   28   97 1    
    59   28   98 1    
    60   29   30 am   BACKBONE|DICT|INTERRES
    61   29   99 1    
    62   30   31 2    
    63   30   32 1    
    64   32   33 1    
    65   32   34 1    
    66   32  100 1    
    67   33  101 1    
    68   33  102 1    
    69   33  103 1    
    70   34   35 am   BACKBONE|DICT|INTERRES
    71   34  104 1    
    72   35   36 2    
    73   37   38 2    
    74   37   39 am   BACKBONE|DICT|INTERRES
    75   39   40 1    
    76   39  105 1    
    77   40   41 1    
    78   40   42 1    
    79   40  106 1    
    80   41  107 1    
    81   41  108 1    
    82   41  109 1    
    83   42   43 2    
    84   42   44 am   BACKBONE|DICT|INTERRES
    85   44   45 1    
    86   44  110 1    
    87   45   46 1    
    88   45   47 1    
    89   45  111 1    
    90   46  112 1    
    91   46  113 1    
    92   46  114 1    
    93   47   48 2    
    94   47   49 am   BACKBONE|DICT|INTERRES
    95   49   50 1    
    96   49  115 1    
    97   50   51 1    
    98   50   52 1    
    99   50  116 1    
   100   51  117 1    
   101   51  118 1    
   102   51  119 1    
   103   52   53 2    
   104   52   54 am   BACKBONE|DICT|INTERRES
   105   54   55 1    
   106   54  120 1    
   107   55   56 1    
   108   55   57 1    
   109   55  121 1    
   110   56  122 1    
   111   56  123 1    
   112   56  124 1    
   113   57   58 2    
   114   57   59 am   BACKBONE|DICT|INTERRES
   115   59   60 1    
   116   59  125 1    
   117   60   61 1    
   118   60   62 1    
   119   60  126 1    
   120   61  127 1    
   121   61  128 1    
   122   61  129 1    
   123   62   63 2    
   124   62   64 am   BACKBONE|DICT|INTERRES
   125   64   65 1    
   126   64  130 1    
   127   65   66 1    
   128   65   69 1    
   129   65  131 1    
   130   66   67 am   BACKBONE|DICT|INTERRES
   131   66   68 2    
   132   67  132 1    
   133   67  133 1    
   134   69   70 1    
   135   69  134 1    
   136   69  135 1    
   137   70   71 1    
   138   71  136 1    
   139   71  137 1    
@<TRIPOS>SUBSTRUCTURE
     1 UNK         1 GROUP             0       ****    0 ROOT    
