@<TRIPOS>MOLECULE
3R137
137   139    1
SMALL
USER_CHARGES


@<TRIPOS>ATOM
      1 CA         30.9135   -0.7629    1.2991 C.3       0 UNK        -0.2020 
      2 C          30.1131   -1.2050    0.0842 C.2       0 UNK         0.4855 
      3 O          30.1279   -0.5242   -0.9420 O.2       0 UNK        -0.5197 
      4 N          29.4015   -2.3343    0.1900 N.am      1 UNK        -0.4892 
      5 CA         28.5976   -2.9443   -0.8795 C.3       1 UNK         0.0835 
      6 C6         28.4751   -4.4858   -0.7120 C.3       12 UNK        -0.0855 
      7 S7         30.0960   -5.3087   -0.4816 S.3       12 UNK        -0.2931 
      8 C8         30.4408   -6.0418   -2.1202 C.3       12 UNK         0.0378 
      9 C9         30.3846   -5.0338   -3.2636 C.ar      12 UNK        -0.0802 
     10 C10        31.0377   -3.7996   -3.1685 C.ar      12 UNK        -0.0944 
     11 C11        30.8913   -2.8354   -4.1698 C.ar      12 UNK        -0.0787 
     12 C12        30.1413   -3.1466   -5.3087 C.ar      12 UNK        -0.0862 
     13 C13        29.5372   -4.3997   -5.4486 C.ar      12 UNK        -0.0733 
     14 C14        29.6558   -5.3353   -4.4179 C.ar      12 UNK        -0.0832 
     15 C15        28.7743   -4.7500   -6.7200 C.3       12 UNK         0.0240 
     16 S16        27.0020   -5.0772   -6.4383 S.3       12 UNK        -0.2522 
     17 C17        26.3811   -3.4938   -5.7810 C.3       12 UNK        -0.0967 
     18 CA         26.2063   -2.4039   -6.8773 C.3       5 UNK         0.0660 
     19 N          24.9306   -1.6902   -6.7641 N.am      5 UNK        -0.4015 
     20 C          24.4707   -0.7677   -7.6256 C.2       4 UNK         0.4946 
     21 O          25.0826   -0.3996   -8.6267 O.2       4 UNK        -0.5353 
     22 CA         23.1006   -0.1334   -7.3272 C.3       4 UNK         0.0277 
     23 CB         22.0096   -0.7834   -8.1930 C.3       4 UNK        -0.1981 
     24 N          22.7253   -0.2325   -5.9161 N.am      4 UNK        -0.4209 
     25 C          23.3040    0.4677   -4.9321 C.2       3 UNK         0.4942 
     26 O          24.1208    1.3706   -5.1309 O.2       3 UNK        -0.5208 
     27 CA         22.9178    0.0837   -3.4885 C.3       3 UNK         0.0250 
     28 CB         22.3273   -1.3400   -3.3569 C.3       3 UNK        -0.1990 
     29 N          24.0283    0.2437   -2.5433 N.am      3 UNK        -0.4232 
     30 C          25.2551   -0.2968   -2.6147 C.2       2 UNK         0.4993 
     31 O          25.6583   -0.9876   -3.5576 O.2       2 UNK        -0.5286 
     32 CA         26.2023    0.0387   -1.4438 C.3       2 UNK         0.0209 
     33 CB         25.4745    0.2229   -0.0915 C.3       2 UNK        -0.1931 
     34 N          27.3010   -0.9206   -1.2966 N.am      2 UNK        -0.4546 
     35 C          27.2350   -2.2315   -1.0216 C.2       1 UNK         0.5154 
     36 O          26.1853   -2.8521   -0.8401 O.2       1 UNK        -0.5181 
     37 C          27.3949   -1.4291   -6.8870 C.2       5 UNK         0.5014 
     38 O          28.1954   -1.4553   -7.8228 O.2       5 UNK        -0.5248 
     39 N          27.4654   -0.5657   -5.8627 N.am      6 UNK        -0.4434 
     40 CA         28.5095    0.4509   -5.7151 C.3       6 UNK         0.0363 
     41 CB         28.3497    1.1691   -4.3678 C.3       6 UNK        -0.1936 
     42 C          28.5490    1.4622   -6.8702 C.2       6 UNK         0.5081 
     43 O          29.6387    1.8712   -7.2706 O.2       6 UNK        -0.5248 
     44 N          27.3710    1.8183   -7.4003 N.am      7 UNK        -0.4718 
     45 CA         27.2195    2.6870   -8.5668 C.3       7 UNK         0.0273 
     46 CB         25.7607    3.1599   -8.6761 C.3       7 UNK        -0.1935 
     47 C          27.6791    2.0034   -9.8647 C.2       7 UNK         0.5018 
     48 O          28.4355    2.6082  -10.6243 O.2       7 UNK        -0.5186 
     49 N          27.2346    0.7574  -10.0865 N.am      8 UNK        -0.4240 
     50 CA         27.5676   -0.0544  -11.2605 C.3       8 UNK         0.0235 
     51 CB         26.6938   -1.3192  -11.2813 C.3       8 UNK        -0.2000 
     52 C          29.0561   -0.4265  -11.3363 C.2       8 UNK         0.4941 
     53 O          29.6469   -0.3349  -12.4131 O.2       8 UNK        -0.5273 
     54 N          29.6379   -0.8244  -10.1970 N.am      9 UNK        -0.4262 
     55 CA         31.0598   -1.1553  -10.0718 C.3       9 UNK         0.0264 
     56 CB         31.2608   -2.0217   -8.8209 C.3       9 UNK        -0.1955 
     57 C          31.9733    0.0824  -10.0106 C.2       9 UNK         0.5031 
     58 O          33.1775   -0.0626  -10.2259 O.2       9 UNK        -0.5390 
     59 N          31.3972    1.2560   -9.7060 N.am      10 UNK        -0.4204 
     60 CA         32.0576    2.5456   -9.4758 C.3       10 UNK         0.0237 
     61 CB         32.7007    3.0807  -10.7734 C.3       10 UNK        -0.1985 
     62 C          33.0343    2.4829   -8.2856 C.2       10 UNK         0.4970 
     63 O          34.1972    2.8726   -8.4140 O.2       10 UNK        -0.4914 
     64 N          32.5394    1.9671   -7.1535 N.am      11 UNK        -0.4285 
     65 CA         33.2807    1.8482   -5.8899 C.3       11 UNK         0.1007 
     66 C          33.6159    3.2327   -5.2692 C.2       11 UNK         0.5703 
     67 N          34.7566    3.3533   -4.6035 N.am      11 UNK        -0.7361 
     68 O          32.8373    4.1816   -5.3491 O.2       11 UNK        -0.4986 
     69 C69        32.5275    0.9629   -4.8646 C.3       12 UNK        -0.0947 
     70 S70        32.3365   -0.7651   -5.4110 S.3       12 UNK        -0.2240 
     71 C71        31.4652   -1.4375   -3.9595 C.3       12 UNK         0.0194 
     72 H72        31.9703   -0.6895    1.0438 H         1 UNK         0.0906 
     73 H73        30.5749    0.2169    1.6345 H         1 UNK         0.0906 
     74 H74        30.8130   -1.4606    2.1303 H         1 UNK         0.0906 
     75 H75        29.4159   -2.8485    1.0594 H         1 UNK         0.3140 
     76 H76        29.1005   -2.7612   -1.8273 H         1 UNK         0.1085 
     77 H77        27.9661   -4.9235   -1.5730 H         1 UNK         0.0836 
     78 H78        27.8585   -4.7249    0.1565 H         1 UNK         0.0836 
     79 H79        31.4324   -6.4957   -2.1011 H         1 UNK         0.0731 
     80 H80        29.7327   -6.8551   -2.2871 H         1 UNK         0.0731 
     81 H81        31.6000   -3.5629   -2.2754 H         1 UNK         0.1312 
     82 H82        30.0254   -2.4082   -6.0869 H         1 UNK         0.1406 
     83 H83        29.1670   -6.2956   -4.5150 H         1 UNK         0.1631 
     84 H84        29.2226   -5.6428   -7.1578 H         1 UNK         0.0717 
     85 H85        28.8810   -3.9683   -7.4715 H         1 UNK         0.0717 
     86 H86        27.0103   -3.1683   -4.9492 H         1 UNK         0.0934 
     87 H87        25.4188   -3.7223   -5.3203 H         1 UNK         0.0934 
     88 H88        26.1837   -2.8865   -7.8570 H         1 UNK         0.0739 
     89 H89        24.3780   -1.8924   -5.9451 H         1 UNK         0.3093 
     90 H90        23.1642    0.9240   -7.5940 H         1 UNK         0.0818 
     91 H91        21.0442   -0.2989   -8.0456 H         1 UNK         0.0819 
     92 H92        22.2533   -0.6990   -9.2532 H         1 UNK         0.0819 
     93 H93        21.8922   -1.8446   -7.9699 H         1 UNK         0.0819 
     94 H94        22.0416   -0.9350   -5.6724 H         1 UNK         0.3041 
     95 H95        22.1491    0.7948   -3.1826 H         1 UNK         0.0784 
     96 H96        21.3900   -1.4428   -3.9049 H         1 UNK         0.0793 
     97 H97        23.0175   -2.1027   -3.7204 H         1 UNK         0.0793 
     98 H98        22.1043   -1.5741   -2.3157 H         1 UNK         0.0793 
     99 H99        23.8300    0.8361   -1.7497 H         1 UNK         0.3024 
    100 H100       26.6690    0.9909   -1.7008 H         1 UNK         0.1171 
    101 H101       26.1863    0.3750    0.7202 H         1 UNK         0.0786 
    102 H102       24.8656   -0.6459    0.1626 H         1 UNK         0.0786 
    103 H103       24.8209    1.0955   -0.0995 H         1 UNK         0.0786 
    104 H104       28.2379   -0.5362   -1.3881 H         1 UNK         0.2977 
    105 H105       26.7697   -0.6289   -5.1218 H         1 UNK         0.3127 
    106 H106       29.4690   -0.0657   -5.7162 H         1 UNK         0.0770 
    107 H107       27.3714    1.6432   -4.2783 H         1 UNK         0.0814 
    108 H108       29.1039    1.9477   -4.2456 H         1 UNK         0.0814 
    109 H109       28.4675    0.4741   -3.5374 H         1 UNK         0.0814 
    110 H110       26.5294    1.4138   -7.0145 H         1 UNK         0.2983 
    111 H111       27.8495    3.5668   -8.4157 H         1 UNK         0.0947 
    112 H112       25.6344    3.8378   -9.5213 H         1 UNK         0.0806 
    113 H113       25.4503    3.6982   -7.7803 H         1 UNK         0.0806 
    114 H114       25.0714    2.3277   -8.8213 H         1 UNK         0.0806 
    115 H115       26.5835    0.3416   -9.4221 H         1 UNK         0.3000 
    116 H116       27.3305    0.5366  -12.1478 H         1 UNK         0.0850 
    117 H117       26.9203   -1.9389  -12.1499 H         1 UNK         0.0810 
    118 H118       25.6344   -1.0667  -11.3300 H         1 UNK         0.0810 
    119 H119       26.8493   -1.9306  -10.3913 H         1 UNK         0.0810 
    120 H120       29.0669   -0.9261   -9.3577 H         1 UNK         0.3040 
    121 H121       31.3590   -1.7417  -10.9431 H         1 UNK         0.0766 
    122 H122       32.3052   -2.3143   -8.7049 H         1 UNK         0.0812 
    123 H123       30.9729   -1.4771   -7.9230 H         1 UNK         0.0812 
    124 H124       30.6685   -2.9352   -8.8679 H         1 UNK         0.0812 
    125 H125       30.4026    1.2493   -9.5220 H         1 UNK         0.3205 
    126 H126       31.2695    3.2437   -9.1891 H         1 UNK         0.0754 
    127 H127       33.0942    4.0871  -10.6261 H         1 UNK         0.0769 
    128 H128       31.9715    3.1328  -11.5821 H         1 UNK         0.0769 
    129 H129       33.5282    2.4543  -11.1075 H         1 UNK         0.0769 
    130 H130       31.5495    1.7404   -7.1220 H         1 UNK         0.2981 
    131 H131       34.2275    1.3570   -6.1236 H         1 UNK         0.0541 
    132 H132       35.3974    2.5793   -4.5210 H         1 UNK         0.3459 
    133 H133       34.9853    4.2394   -4.1808 H         1 UNK         0.3459 
    134 H134       31.5393    1.3780   -4.6587 H         1 UNK         0.0612 
    135 H135       33.0595    0.9459   -3.9113 H         1 UNK         0.0612 
    136 H136       32.1528   -1.4277   -3.1124 H         1 UNK         0.0624 
    137 H137       30.6438   -0.7724   -3.6930 H         1 UNK         0.0624 
@<TRIPOS>BOND
     1    1    2 1    
     2    1   72 1    
     3    1   73 1    
     4    1   74 1    
     5    2    3 2    
     6    2    4 am   BACKBONE|DICT|INTERRES
     7    4    5 1    
     8    4   75 1    
     9    5    6 1    
    10    5   35 1    
    11    5   76 1    
    12    6    7 1    
    13    6   77 1    
    14    6   78 1    
    15    7    8 1    
    16    8    9 1    
    17    8   79 1    
    18    8   80 1    
    19    9   10 ar   
    20    9   14 ar   
    21   10   11 ar   
    22   10   81 1    
    23   11   12 ar   
    24   11   71 1    
    25   12   13 ar   
    26   12   82 1    
    27   13   14 ar   
    28   13   15 1    
    29   14   83 1    
    30   15   16 1    
    31   15   84 1    
    32   15   85 1    
    33   16   17 1    
    34   17   18 1    
    35   17   86 1    
    36   17   87 1    
    37   18   19 1    
    38   18   37 1    
    39   18   88 1    
    40   19   20 am   BACKBONE|DICT|INTERRES
    41   19   89 1    
    42   20   21 2    
    43   20   22 1    
    44   22   23 1    
    45   22   24 1    
    46   22   90 1    
    47   23   91 1    
    48   23   92 1    
    49   23   93 1    
    50   24   25 am   BACKBONE|DICT|INTERRES
    51   24   94 1    
    52   25   26 2    
    53   25   27 1    
    54   27   28 1    
    55   27   29 1    
    56   27   95 1    
    57   28   96 1    
    58   28   97 1    
    59   28   98 1    
    60   29   30 am   BACKBONE|DICT|INTERRES
    61   29   99 1    
    62   30   31 2    
    63   30   32 1    
    64   32   33 1    
    65   32   34 1    
    66   32  100 1    
    67   33  101 1    
    68   33  102 1    
    69   33  103 1    
    70   34   35 am   BACKBONE|DICT|INTERRES
    71   34  104 1    
    72   35   36 2    
    73   37   38 2    
    74   37   39 am   BACKBONE|DICT|INTERRES
    75   39   40 1    
    76   39  105 1    
    77   40   41 1    
    78   40   42 1    
    79   40  106 1    
    80   41  107 1    
    81   41  108 1    
    82   41  109 1    
    83   42   43 2    
    84   42   44 am   BACKBONE|DICT|INTERRES
    85   44   45 1    
    86   44  110 1    
    87   45   46 1    
    88   45   47 1    
    89   45  111 1    
    90   46  112 1    
    91   46  113 1    
    92   46  114 1    
    93   47   48 2    
    94   47   49 am   BACKBONE|DICT|INTERRES
    95   49   50 1    
    96   49  115 1    
    97   50   51 1    
    98   50   52 1    
    99   50  116 1    
   100   51  117 1    
   101   51  118 1    
   102   51  119 1    
   103   52   53 2    
   104   52   54 am   BACKBONE|DICT|INTERRES
   105   54   55 1    
   106   54  120 1    
   107   55   56 1    
   108   55   57 1    
   109   55  121 1    
   110   56  122 1    
   111   56  123 1    
   112   56  124 1    
   113   57   58 2    
   114   57   59 am   BACKBONE|DICT|INTERRES
   115   59   60 1    
   116   59  125 1    
   117   60   61 1    
   118   60   62 1    
   119   60  126 1    
   120   61  127 1    
   121   61  128 1    
   122   61  129 1    
   123   62   63 2    
   124   62   64 am   BACKBONE|DICT|INTERRES
   125   64   65 1    
   126   64  130 1    
   127   65   66 1    
   128   65   69 1    
   129   65  131 1    
   130   66   67 am   BACKBONE|DICT|INTERRES
   131   66   68 2    
   132   67  132 1    
   133   67  133 1    
   134   69   70 1    
   135   69  134 1    
   136   69  135 1    
   137   70   71 1    
   138   71  136 1    
   139   71  137 1    
@<TRIPOS>SUBSTRUCTURE
     1 UNK         1 GROUP             0       ****    0 ROOT    
