@<TRIPOS>MOLECULE
3R137
137   139    1
SMALL
USER_CHARGES


@<TRIPOS>ATOM
      1 CA         25.5018   -3.2556    2.0796 C.3       0 UNK        -0.2020 
      2 C          26.2448   -4.1144    1.0592 C.2       0 UNK         0.4855 
      3 O          26.0425   -5.3265    1.0329 O.2       0 UNK        -0.5197 
      4 N          27.1126   -3.5516    0.2052 N.am      1 UNK        -0.4892 
      5 CA         27.4544   -2.1248    0.0803 C.3       1 UNK         0.0835 
      6 C6         28.7017   -1.9073   -0.8090 C.3       12 UNK        -0.0855 
      7 S7         30.1635   -2.8239   -0.2233 S.3       12 UNK        -0.2931 
      8 C8         31.4127   -2.2847   -1.4426 C.3       12 UNK         0.0378 
      9 C9         31.3260   -2.9146   -2.8371 C.ar      12 UNK        -0.0802 
     10 C10        32.2988   -2.5510   -3.7735 C.ar      12 UNK        -0.0944 
     11 C11        32.3106   -3.1108   -5.0532 C.ar      12 UNK        -0.0787 
     12 C12        31.3245   -4.0351   -5.4076 C.ar      12 UNK        -0.0862 
     13 C13        30.3403   -4.4120   -4.4889 C.ar      12 UNK        -0.0733 
     14 C14        30.3490   -3.8517   -3.2073 C.ar      12 UNK        -0.0832 
     15 C15        29.3187   -5.4853   -4.8502 C.3       12 UNK         0.0240 
     16 S16        28.3530   -5.0941   -6.3448 S.3       12 UNK        -0.2522 
     17 C17        27.1207   -3.9063   -5.7159 C.3       12 UNK        -0.0967 
     18 CA         26.7921   -2.8178   -6.7718 C.3       5 UNK         0.0660 
     19 N          25.4784   -2.2210   -6.5589 N.am      5 UNK        -0.4015 
     20 C          24.5118   -2.1478   -7.4851 C.2       4 UNK         0.4946 
     21 O          24.5506   -2.7358   -8.5665 O.2       4 UNK        -0.5353 
     22 CA         23.2873   -1.2612   -7.1774 C.3       4 UNK         0.0277 
     23 CB         22.0650   -2.1329   -6.8445 C.3       4 UNK        -0.1981 
     24 N          23.4885   -0.2941   -6.0948 N.am      4 UNK        -0.4209 
     25 C          24.4185    0.6715   -6.0654 C.2       3 UNK         0.4942 
     26 O          25.2017    0.9005   -6.9862 O.2       3 UNK        -0.5208 
     27 CA         24.5621    1.4450   -4.7430 C.3       3 UNK         0.0250 
     28 CB         23.6697    2.6960   -4.7502 C.3       3 UNK        -0.1990 
     29 N          24.2579    0.6321   -3.5584 N.am      3 UNK        -0.4232 
     30 C          24.8910   -0.4990   -3.2158 C.2       2 UNK         0.4993 
     31 O          25.8202   -0.9946   -3.8637 O.2       2 UNK        -0.5286 
     32 CA         24.3351   -1.2457   -1.9951 C.3       2 UNK         0.0209 
     33 CB         23.3098   -2.3000   -2.4436 C.3       2 UNK        -0.1931 
     34 N          25.4101   -1.9104   -1.2634 N.am      2 UNK        -0.4546 
     35 C          26.2943   -1.2784   -0.4808 C.2       1 UNK         0.5154 
     36 O          26.2250   -0.0815   -0.1992 O.2       1 UNK        -0.5181 
     37 C          27.8415   -1.6947   -6.8171 C.2       5 UNK         0.5014 
     38 O          28.4371   -1.4682   -7.8702 O.2       5 UNK        -0.5248 
     39 N          28.0459   -1.0089   -5.6829 N.am      6 UNK        -0.4434 
     40 CA         29.1834   -0.1157   -5.4575 C.3       6 UNK         0.0363 
     41 CB         29.2579    0.2625   -3.9712 C.3       6 UNK        -0.1936 
     42 C          29.1967    1.1402   -6.3392 C.2       6 UNK         0.5081 
     43 O          30.2498    1.4844   -6.8733 O.2       6 UNK        -0.5248 
     44 N          28.0463    1.8094   -6.4866 N.am      7 UNK        -0.4718 
     45 CA         27.9299    3.0068   -7.3245 C.3       7 UNK         0.0273 
     46 CB         26.7317    3.8638   -6.8857 C.3       7 UNK        -0.1935 
     47 C          27.8361    2.6351   -8.8101 C.2       7 UNK         0.5018 
     48 O          28.4566    3.3035   -9.6360 O.2       7 UNK        -0.5186 
     49 N          27.1032    1.5540   -9.1137 N.am      8 UNK        -0.4240 
     50 CA         26.9346    0.9931  -10.4565 C.3       8 UNK         0.0235 
     51 CB         25.9434   -0.1787  -10.3999 C.3       8 UNK        -0.2000 
     52 C          28.2587    0.5553  -11.1066 C.2       8 UNK         0.4941 
     53 O          28.4889    0.8720  -12.2742 O.2       8 UNK        -0.5273 
     54 N          29.1142   -0.1343  -10.3388 N.am      9 UNK        -0.4262 
     55 CA         30.4535   -0.5526  -10.7645 C.3       9 UNK         0.0264 
     56 CB         30.8399   -1.8331  -10.0070 C.3       9 UNK        -0.1955 
     57 C          31.5262    0.5421  -10.5896 C.2       9 UNK         0.5031 
     58 O          32.6591    0.3294  -11.0248 O.2       9 UNK        -0.5390 
     59 N          31.1630    1.6796   -9.9749 N.am      10 UNK        -0.4204 
     60 CA         32.0030    2.8453   -9.6691 C.3       10 UNK         0.0237 
     61 CB         32.4302    3.5694  -10.9637 C.3       10 UNK        -0.1985 
     62 C          33.1874    2.4988   -8.7450 C.2       10 UNK         0.4970 
     63 O          34.3295    2.8665   -9.0282 O.2       10 UNK        -0.4914 
     64 N          32.8826    1.7887   -7.6543 N.am      11 UNK        -0.4285 
     65 CA         33.8390    1.3334   -6.6348 C.3       11 UNK         0.1007 
     66 C          34.2681    2.4364   -5.6250 C.2       11 UNK         0.5703 
     67 N          33.6248    3.5980   -5.5901 N.am      11 UNK        -0.7361 
     68 O          35.2124    2.2373   -4.8645 O.2       11 UNK        -0.4986 
     69 C69        33.3136    0.0752   -5.8947 C.3       12 UNK        -0.0947 
     70 S70        32.9816   -1.3038   -7.0420 S.3       12 UNK        -0.2240 
     71 C71        33.4141   -2.7537   -6.0379 C.3       12 UNK         0.0194 
     72 H72        26.1721   -2.5682    2.5936 H         1 UNK         0.0906 
     73 H73        24.7083   -2.6843    1.5991 H         1 UNK         0.0906 
     74 H74        25.0406   -3.8862    2.8395 H         1 UNK         0.0906 
     75 H75        27.6195   -4.1611   -0.4203 H         1 UNK         0.3140 
     76 H76        27.6874   -1.7390    1.0745 H         1 UNK         0.1085 
     77 H77        28.4887   -2.1993   -1.8387 H         1 UNK         0.0836 
     78 H78        28.9631   -0.8471   -0.8400 H         1 UNK         0.0836 
     79 H79        32.3952   -2.5143   -1.0274 H         1 UNK         0.0731 
     80 H80        31.3691   -1.1985   -1.5368 H         1 UNK         0.0731 
     81 H81        33.0667   -1.8414   -3.4973 H         1 UNK         0.1312 
     82 H82        31.3341   -4.4788   -6.3939 H         1 UNK         0.1406 
     83 H83        29.6038   -4.1755   -2.4966 H         1 UNK         0.1631 
     84 H84        28.6332   -5.6755   -4.0228 H         1 UNK         0.0717 
     85 H85        29.8526   -6.4208   -5.0219 H         1 UNK         0.0717 
     86 H86        26.2219   -4.4807   -5.4852 H         1 UNK         0.0934 
     87 H87        27.4472   -3.4781   -4.7662 H         1 UNK         0.0934 
     88 H88        26.8091   -3.2953   -7.7542 H         1 UNK         0.0739 
     89 H89        25.3690   -1.6996   -5.6959 H         1 UNK         0.3093 
     90 H90        23.0705   -0.6934   -8.0847 H         1 UNK         0.0818 
     91 H91        21.1664   -1.5282   -6.7198 H         1 UNK         0.0819 
     92 H92        21.8629   -2.8452   -7.6458 H         1 UNK         0.0819 
     93 H93        22.2156   -2.7070   -5.9293 H         1 UNK         0.0819 
     94 H94        22.8960   -0.3995   -5.2847 H         1 UNK         0.3041 
     95 H95        25.6021    1.7663   -4.6609 H         1 UNK         0.0784 
     96 H96        23.8737    3.3212   -5.6201 H         1 UNK         0.0793 
     97 H97        22.6102    2.4381   -4.7788 H         1 UNK         0.0793 
     98 H98        23.8420    3.3109   -3.8665 H         1 UNK         0.0793 
     99 H99        23.5017    0.9609   -2.9744 H         1 UNK         0.3024 
    100 H100       23.8453   -0.5327   -1.3274 H         1 UNK         0.1171 
    101 H101       22.4678   -1.8361   -2.9589 H         1 UNK         0.0786 
    102 H102       23.7496   -3.0280   -3.1272 H         1 UNK         0.0786 
    103 H103       22.9034   -2.8449   -1.5911 H         1 UNK         0.0786 
    104 H104       25.5626   -2.8885   -1.4622 H         1 UNK         0.2977 
    105 H105       27.4293   -1.1695   -4.8905 H         1 UNK         0.3127 
    106 H106       30.0859   -0.6822   -5.6994 H         1 UNK         0.0770 
    107 H107       28.3379    0.7350   -3.6244 H         1 UNK         0.0814 
    108 H108       30.0779    0.9572   -3.7834 H         1 UNK         0.0814 
    109 H109       29.4390   -0.6178   -3.3575 H         1 UNK         0.0814 
    110 H110       27.1946    1.4238   -6.1030 H         1 UNK         0.2983 
    111 H111       28.8296    3.6124   -7.1901 H         1 UNK         0.0947 
    112 H112       26.7427    4.8263   -7.3986 H         1 UNK         0.0806 
    113 H113       26.7549    4.0674   -5.8151 H         1 UNK         0.0806 
    114 H114       25.7794    3.3914   -7.1212 H         1 UNK         0.0806 
    115 H115       26.5849    1.1093   -8.3610 H         1 UNK         0.3000 
    116 H116       26.5021    1.7762  -11.0827 H         1 UNK         0.0850 
    117 H117       25.7579   -0.5833  -11.3956 H         1 UNK         0.0810 
    118 H118       24.9819    0.1315   -9.9902 H         1 UNK         0.0810 
    119 H119       26.3221   -0.9940   -9.7823 H         1 UNK         0.0810 
    120 H120       28.8305   -0.4152   -9.4010 H         1 UNK         0.3040 
    121 H121       30.4251   -0.7970  -11.8285 H         1 UNK         0.0766 
    122 H122       30.8476   -1.6708   -8.9300 H         1 UNK         0.0812 
    123 H123       31.8335   -2.1804  -10.2929 H         1 UNK         0.0812 
    124 H124       30.1397   -2.6424  -10.2140 H         1 UNK         0.0812 
    125 H125       30.2034    1.7508   -9.6630 H         1 UNK         0.3205 
    126 H126       31.3699    3.5319   -9.1049 H         1 UNK         0.0754 
    127 H127       32.9579    4.4965  -10.7366 H         1 UNK         0.0769 
    128 H128       31.5651    3.8305  -11.5734 H         1 UNK         0.0769 
    129 H129       33.0967    2.9565  -11.5715 H         1 UNK         0.0769 
    130 H130       31.9049    1.5678   -7.4660 H         1 UNK         0.2981 
    131 H131       34.7539    1.0425   -7.1546 H         1 UNK         0.0541 
    132 H132       32.8448    3.7658   -6.2044 H         1 UNK         0.3459 
    133 H133       33.9171    4.3060   -4.9354 H         1 UNK         0.3459 
    134 H134       32.3965    0.3013   -5.3484 H         1 UNK         0.0612 
    135 H135       34.0422   -0.2554   -5.1528 H         1 UNK         0.0612 
    136 H136       34.3556   -2.5798   -5.5149 H         1 UNK         0.0624 
    137 H137       33.5946   -3.5949   -6.7086 H         1 UNK         0.0624 
@<TRIPOS>BOND
     1    1    2 1    
     2    1   72 1    
     3    1   73 1    
     4    1   74 1    
     5    2    3 2    
     6    2    4 am   BACKBONE|DICT|INTERRES
     7    4    5 1    
     8    4   75 1    
     9    5    6 1    
    10    5   35 1    
    11    5   76 1    
    12    6    7 1    
    13    6   77 1    
    14    6   78 1    
    15    7    8 1    
    16    8    9 1    
    17    8   79 1    
    18    8   80 1    
    19    9   10 ar   
    20    9   14 ar   
    21   10   11 ar   
    22   10   81 1    
    23   11   12 ar   
    24   11   71 1    
    25   12   13 ar   
    26   12   82 1    
    27   13   14 ar   
    28   13   15 1    
    29   14   83 1    
    30   15   16 1    
    31   15   84 1    
    32   15   85 1    
    33   16   17 1    
    34   17   18 1    
    35   17   86 1    
    36   17   87 1    
    37   18   19 1    
    38   18   37 1    
    39   18   88 1    
    40   19   20 am   BACKBONE|DICT|INTERRES
    41   19   89 1    
    42   20   21 2    
    43   20   22 1    
    44   22   23 1    
    45   22   24 1    
    46   22   90 1    
    47   23   91 1    
    48   23   92 1    
    49   23   93 1    
    50   24   25 am   BACKBONE|DICT|INTERRES
    51   24   94 1    
    52   25   26 2    
    53   25   27 1    
    54   27   28 1    
    55   27   29 1    
    56   27   95 1    
    57   28   96 1    
    58   28   97 1    
    59   28   98 1    
    60   29   30 am   BACKBONE|DICT|INTERRES
    61   29   99 1    
    62   30   31 2    
    63   30   32 1    
    64   32   33 1    
    65   32   34 1    
    66   32  100 1    
    67   33  101 1    
    68   33  102 1    
    69   33  103 1    
    70   34   35 am   BACKBONE|DICT|INTERRES
    71   34  104 1    
    72   35   36 2    
    73   37   38 2    
    74   37   39 am   BACKBONE|DICT|INTERRES
    75   39   40 1    
    76   39  105 1    
    77   40   41 1    
    78   40   42 1    
    79   40  106 1    
    80   41  107 1    
    81   41  108 1    
    82   41  109 1    
    83   42   43 2    
    84   42   44 am   BACKBONE|DICT|INTERRES
    85   44   45 1    
    86   44  110 1    
    87   45   46 1    
    88   45   47 1    
    89   45  111 1    
    90   46  112 1    
    91   46  113 1    
    92   46  114 1    
    93   47   48 2    
    94   47   49 am   BACKBONE|DICT|INTERRES
    95   49   50 1    
    96   49  115 1    
    97   50   51 1    
    98   50   52 1    
    99   50  116 1    
   100   51  117 1    
   101   51  118 1    
   102   51  119 1    
   103   52   53 2    
   104   52   54 am   BACKBONE|DICT|INTERRES
   105   54   55 1    
   106   54  120 1    
   107   55   56 1    
   108   55   57 1    
   109   55  121 1    
   110   56  122 1    
   111   56  123 1    
   112   56  124 1    
   113   57   58 2    
   114   57   59 am   BACKBONE|DICT|INTERRES
   115   59   60 1    
   116   59  125 1    
   117   60   61 1    
   118   60   62 1    
   119   60  126 1    
   120   61  127 1    
   121   61  128 1    
   122   61  129 1    
   123   62   63 2    
   124   62   64 am   BACKBONE|DICT|INTERRES
   125   64   65 1    
   126   64  130 1    
   127   65   66 1    
   128   65   69 1    
   129   65  131 1    
   130   66   67 am   BACKBONE|DICT|INTERRES
   131   66   68 2    
   132   67  132 1    
   133   67  133 1    
   134   69   70 1    
   135   69  134 1    
   136   69  135 1    
   137   70   71 1    
   138   71  136 1    
   139   71  137 1    
@<TRIPOS>SUBSTRUCTURE
     1 UNK         1 GROUP             0       ****    0 ROOT    
