@<TRIPOS>MOLECULE
3R137
137   139    1
SMALL
USER_CHARGES


@<TRIPOS>ATOM
      1 CA         26.8810   -5.6984   -3.4508 C.3       0 UNK        -0.2020 
      2 C          27.0590   -5.0772   -2.0745 C.2       0 UNK         0.4855 
      3 O          26.1392   -5.1303   -1.2590 O.2       0 UNK        -0.5197 
      4 N          28.2425   -4.5140   -1.8008 N.am      1 UNK        -0.4892 
      5 CA         28.6301   -3.9758   -0.4910 C.3       1 UNK         0.0835 
      6 C6         30.1712   -3.8427   -0.2957 C.3       12 UNK        -0.0855 
      7 S7         31.1562   -5.0963   -1.1968 S.3       12 UNK        -0.2931 
      8 C8         32.0780   -4.0870   -2.4097 C.3       12 UNK         0.0378 
      9 C9         31.1888   -3.1444   -3.2154 C.ar      12 UNK        -0.0802 
     10 C10        31.2350   -1.7677   -2.9706 C.ar      12 UNK        -0.0944 
     11 C11        30.4451   -0.8853   -3.7112 C.ar      12 UNK        -0.0787 
     12 C12        29.5960   -1.3898   -4.6985 C.ar      12 UNK        -0.0862 
     13 C13        29.5439   -2.7617   -4.9610 C.ar      12 UNK        -0.0733 
     14 C14        30.3471   -3.6364   -4.2198 C.ar      12 UNK        -0.0832 
     15 C15        28.6640   -3.2765   -6.0900 C.3       12 UNK         0.0240 
     16 S16        26.8912   -3.0381   -5.7516 S.3       12 UNK        -0.2522 
     17 C17        26.2219   -3.0375   -7.4579 C.3       12 UNK        -0.0967 
     18 CA         25.5848   -1.6894   -7.8839 C.3       5 UNK         0.0660 
     19 N          24.4113   -1.3772   -7.0644 N.am      5 UNK        -0.4015 
     20 C          23.6058   -0.3129   -7.1921 C.2       4 UNK         0.4946 
     21 O          23.6807    0.4917   -8.1216 O.2       4 UNK        -0.5353 
     22 CA         22.5833   -0.0659   -6.0621 C.3       4 UNK         0.0277 
     23 CB         21.1722   -0.4645   -6.5236 C.3       4 UNK        -0.1981 
     24 N          22.8818   -0.7379   -4.7859 N.am      4 UNK        -0.4209 
     25 C          24.0199   -0.6219   -4.0843 C.2       3 UNK         0.4942 
     26 O          24.9701    0.0736   -4.4538 O.2       3 UNK        -0.5208 
     27 CA         24.1297   -1.4700   -2.8016 C.3       3 UNK         0.0250 
     28 CB         23.8067   -2.9523   -3.0702 C.3       3 UNK        -0.1990 
     29 N          25.4833   -1.3872   -2.2550 N.am      3 UNK        -0.4232 
     30 C          25.9342   -0.4158   -1.4519 C.2       2 UNK         0.4993 
     31 O          25.2116    0.4291   -0.9192 O.2       2 UNK        -0.5286 
     32 CA         27.4597   -0.3746   -1.2491 C.3       2 UNK         0.0209 
     33 CB         27.9060    0.5084   -0.0638 C.3       2 UNK        -0.1931 
     34 N          28.0668   -1.7111   -1.1930 N.am      2 UNK        -0.4546 
     35 C          27.9226   -2.6341   -0.2280 C.2       1 UNK         0.5154 
     36 O          27.2682   -2.4754    0.8033 O.2       1 UNK        -0.5181 
     37 C          26.6288   -0.5481   -7.9257 C.2       5 UNK         0.5014 
     38 O          27.3169   -0.4039   -8.9370 O.2       5 UNK        -0.5248 
     39 N          26.6999    0.2698   -6.8617 N.am      6 UNK        -0.4434 
     40 CA         27.5739    1.4410   -6.7273 C.3       6 UNK         0.0363 
     41 CB         27.4077    2.0180   -5.3128 C.3       6 UNK        -0.1936 
     42 C          27.3397    2.5443   -7.7776 C.2       6 UNK         0.5081 
     43 O          28.2017    3.4071   -7.9406 O.2       6 UNK        -0.5248 
     44 N          26.1980    2.5064   -8.4806 N.am      7 UNK        -0.4718 
     45 CA         25.9120    3.3664   -9.6304 C.3       7 UNK         0.0273 
     46 CB         24.4106    3.2922   -9.9509 C.3       7 UNK        -0.1935 
     47 C          26.7457    3.0113  -10.8780 C.2       7 UNK         0.5018 
     48 O          26.8987    3.8694  -11.7486 O.2       7 UNK        -0.5186 
     49 N          27.2513    1.7712  -10.9545 N.am      8 UNK        -0.4240 
     50 CA         28.0478    1.2579  -12.0709 C.3       8 UNK         0.0235 
     51 CB         27.3125    0.0655  -12.7061 C.3       8 UNK        -0.2000 
     52 C          29.4595    0.8415  -11.6316 C.2       8 UNK         0.4941 
     53 O          30.4122    1.0863  -12.3737 O.2       8 UNK        -0.5273 
     54 N          29.5767    0.1993  -10.4618 N.am      9 UNK        -0.4262 
     55 CA         30.8320   -0.3176   -9.9162 C.3       9 UNK         0.0264 
     56 CB         30.5079   -1.3112   -8.7897 C.3       9 UNK        -0.1955 
     57 C          31.7521    0.7934   -9.3869 C.2       9 UNK         0.5031 
     58 O          31.2731    1.8316   -8.9273 O.2       9 UNK        -0.5390 
     59 N          33.0620    0.5167   -9.4074 N.am      10 UNK        -0.4204 
     60 CA         34.1079    1.3789   -8.8464 C.3       10 UNK         0.0237 
     61 CB         35.4304    1.0932   -9.5797 C.3       10 UNK        -0.1985 
     62 C          34.2889    1.2156   -7.3232 C.2       10 UNK         0.4970 
     63 O          35.0262    2.0031   -6.7292 O.2       10 UNK        -0.4914 
     64 N          33.6475    0.1974   -6.7299 N.am      11 UNK        -0.4285 
     65 CA         33.7029   -0.1712   -5.3019 C.3       11 UNK         0.1007 
     66 C          35.0707   -0.7553   -4.8319 C.2       11 UNK         0.5703 
     67 N          35.9713   -1.1399   -5.7291 N.am      11 UNK        -0.7361 
     68 O          35.3113   -0.8990   -3.6354 O.2       11 UNK        -0.4986 
     69 C69        33.1723    0.9426   -4.3512 C.3       12 UNK        -0.0947 
     70 S70        31.4712    1.4709   -4.7473 S.3       12 UNK        -0.2240 
     71 C71        30.5187    0.6134   -3.4568 C.3       12 UNK         0.0194 
     72 H72        26.7554   -6.7768   -3.3596 H         1 UNK         0.0906 
     73 H73        25.9929   -5.2954   -3.9356 H         1 UNK         0.0906 
     74 H74        27.7374   -5.5116   -4.0975 H         1 UNK         0.0906 
     75 H75        28.9776   -4.5162   -2.4938 H         1 UNK         0.3140 
     76 H76        28.2708   -4.6822    0.2616 H         1 UNK         0.1085 
     77 H77        30.5333   -2.8507   -0.5662 H         1 UNK         0.0836 
     78 H78        30.4054   -3.9375    0.7660 H         1 UNK         0.0836 
     79 H79        32.6073   -4.7533   -3.0924 H         1 UNK         0.0731 
     80 H80        32.8499   -3.5250   -1.8813 H         1 UNK         0.0731 
     81 H81        31.8972   -1.3794   -2.2085 H         1 UNK         0.1312 
     82 H82        28.9891   -0.7120   -5.2813 H         1 UNK         0.1406 
     83 H83        30.3320   -4.6973   -4.4320 H         1 UNK         0.1631 
     84 H84        28.8502   -4.3335   -6.2856 H         1 UNK         0.0717 
     85 H85        28.9329   -2.7436   -6.9998 H         1 UNK         0.0717 
     86 H86        26.9991   -3.3241   -8.1690 H         1 UNK         0.0934 
     87 H87        25.4756   -3.8310   -7.5232 H         1 UNK         0.0934 
     88 H88        25.2198   -1.8055   -8.9064 H         1 UNK         0.0739 
     89 H89        24.2796   -1.9668   -6.2567 H         1 UNK         0.3093 
     90 H90        22.5883    1.0083   -5.8664 H         1 UNK         0.0818 
     91 H91        20.4187   -0.1885   -5.7857 H         1 UNK         0.0819 
     92 H92        20.9083    0.0399   -7.4545 H         1 UNK         0.0819 
     93 H93        21.0935   -1.5378   -6.7016 H         1 UNK         0.0819 
     94 H94        22.1522   -1.3309   -4.4167 H         1 UNK         0.3041 
     95 H95        23.4169   -1.0790   -2.0725 H         1 UNK         0.0784 
     96 H96        24.4266   -3.3645   -3.8668 H         1 UNK         0.0793 
     97 H97        23.9693   -3.5577   -2.1779 H         1 UNK         0.0793 
     98 H98        22.7646   -3.0928   -3.3582 H         1 UNK         0.0793 
     99 H99        26.1626   -2.0128   -2.6614 H         1 UNK         0.3024 
    100 H100       27.8451    0.0911   -2.1554 H         1 UNK         0.1171 
    101 H101       27.5784    1.5394   -0.2021 H         1 UNK         0.0786 
    102 H102       28.9917    0.5250    0.0313 H         1 UNK         0.0786 
    103 H103       27.4894    0.1627    0.8824 H         1 UNK         0.0786 
    104 H104       28.6264   -1.9683   -1.9954 H         1 UNK         0.2977 
    105 H105       26.0812    0.0903   -6.0740 H         1 UNK         0.3127 
    106 H106       28.6040    1.0986   -6.8456 H         1 UNK         0.0770 
    107 H107       28.1504    2.7925   -5.1166 H         1 UNK         0.0814 
    108 H108       27.5246    1.2487   -4.5511 H         1 UNK         0.0814 
    109 H109       26.4218    2.4646   -5.1763 H         1 UNK         0.0814 
    110 H110       25.5193    1.7822   -8.2738 H         1 UNK         0.2983 
    111 H111       26.1538    4.3961   -9.3575 H         1 UNK         0.0947 
    112 H112       24.1533    3.9592  -10.7749 H         1 UNK         0.0806 
    113 H113       23.8056    3.5879   -9.0936 H         1 UNK         0.0806 
    114 H114       24.1099    2.2844  -10.2407 H         1 UNK         0.0806 
    115 H115       27.0999    1.1373  -10.1765 H         1 UNK         0.3000 
    116 H116       28.1666    2.0255  -12.8387 H         1 UNK         0.0850 
    117 H117       27.8834   -0.3480  -13.5387 H         1 UNK         0.0810 
    118 H118       26.3400    0.3648  -13.0973 H         1 UNK         0.0810 
    119 H119       27.1505   -0.7394  -11.9876 H         1 UNK         0.0810 
    120 H120       28.7433    0.0252   -9.9033 H         1 UNK         0.3040 
    121 H121       31.3499   -0.8535  -10.7149 H         1 UNK         0.0766 
    122 H122       31.4099   -1.7892   -8.4066 H         1 UNK         0.0812 
    123 H123       29.8488   -2.1042   -9.1435 H         1 UNK         0.0812 
    124 H124       30.0183   -0.8146   -7.9505 H         1 UNK         0.0812 
    125 H125       33.3683   -0.3575   -9.8117 H         1 UNK         0.3205 
    126 H126       33.8390    2.4219   -9.0277 H         1 UNK         0.0754 
    127 H127       36.2276    1.7448   -9.2189 H         1 UNK         0.0769 
    128 H128       35.3349    1.2683  -10.6516 H         1 UNK         0.0769 
    129 H129       35.7609    0.0639   -9.4352 H         1 UNK         0.0769 
    130 H130       33.0709   -0.3962   -7.3045 H         1 UNK         0.2981 
    131 H131       33.0175   -1.0141   -5.2103 H         1 UNK         0.0541 
    132 H132       35.7890   -1.0412   -6.7141 H         1 UNK         0.3459 
    133 H133       36.8463   -1.5271   -5.4128 H         1 UNK         0.3459 
    134 H134       33.8181    1.8205   -4.3885 H         1 UNK         0.0612 
    135 H135       33.1958    0.6067   -3.3135 H         1 UNK         0.0612 
    136 H136       30.9512    0.8242   -2.4775 H         1 UNK         0.0624 
    137 H137       29.5156    1.0341   -3.4373 H         1 UNK         0.0624 
@<TRIPOS>BOND
     1    1    2 1    
     2    1   72 1    
     3    1   73 1    
     4    1   74 1    
     5    2    3 2    
     6    2    4 am   BACKBONE|DICT|INTERRES
     7    4    5 1    
     8    4   75 1    
     9    5    6 1    
    10    5   35 1    
    11    5   76 1    
    12    6    7 1    
    13    6   77 1    
    14    6   78 1    
    15    7    8 1    
    16    8    9 1    
    17    8   79 1    
    18    8   80 1    
    19    9   10 ar   
    20    9   14 ar   
    21   10   11 ar   
    22   10   81 1    
    23   11   12 ar   
    24   11   71 1    
    25   12   13 ar   
    26   12   82 1    
    27   13   14 ar   
    28   13   15 1    
    29   14   83 1    
    30   15   16 1    
    31   15   84 1    
    32   15   85 1    
    33   16   17 1    
    34   17   18 1    
    35   17   86 1    
    36   17   87 1    
    37   18   19 1    
    38   18   37 1    
    39   18   88 1    
    40   19   20 am   BACKBONE|DICT|INTERRES
    41   19   89 1    
    42   20   21 2    
    43   20   22 1    
    44   22   23 1    
    45   22   24 1    
    46   22   90 1    
    47   23   91 1    
    48   23   92 1    
    49   23   93 1    
    50   24   25 am   BACKBONE|DICT|INTERRES
    51   24   94 1    
    52   25   26 2    
    53   25   27 1    
    54   27   28 1    
    55   27   29 1    
    56   27   95 1    
    57   28   96 1    
    58   28   97 1    
    59   28   98 1    
    60   29   30 am   BACKBONE|DICT|INTERRES
    61   29   99 1    
    62   30   31 2    
    63   30   32 1    
    64   32   33 1    
    65   32   34 1    
    66   32  100 1    
    67   33  101 1    
    68   33  102 1    
    69   33  103 1    
    70   34   35 am   BACKBONE|DICT|INTERRES
    71   34  104 1    
    72   35   36 2    
    73   37   38 2    
    74   37   39 am   BACKBONE|DICT|INTERRES
    75   39   40 1    
    76   39  105 1    
    77   40   41 1    
    78   40   42 1    
    79   40  106 1    
    80   41  107 1    
    81   41  108 1    
    82   41  109 1    
    83   42   43 2    
    84   42   44 am   BACKBONE|DICT|INTERRES
    85   44   45 1    
    86   44  110 1    
    87   45   46 1    
    88   45   47 1    
    89   45  111 1    
    90   46  112 1    
    91   46  113 1    
    92   46  114 1    
    93   47   48 2    
    94   47   49 am   BACKBONE|DICT|INTERRES
    95   49   50 1    
    96   49  115 1    
    97   50   51 1    
    98   50   52 1    
    99   50  116 1    
   100   51  117 1    
   101   51  118 1    
   102   51  119 1    
   103   52   53 2    
   104   52   54 am   BACKBONE|DICT|INTERRES
   105   54   55 1    
   106   54  120 1    
   107   55   56 1    
   108   55   57 1    
   109   55  121 1    
   110   56  122 1    
   111   56  123 1    
   112   56  124 1    
   113   57   58 2    
   114   57   59 am   BACKBONE|DICT|INTERRES
   115   59   60 1    
   116   59  125 1    
   117   60   61 1    
   118   60   62 1    
   119   60  126 1    
   120   61  127 1    
   121   61  128 1    
   122   61  129 1    
   123   62   63 2    
   124   62   64 am   BACKBONE|DICT|INTERRES
   125   64   65 1    
   126   64  130 1    
   127   65   66 1    
   128   65   69 1    
   129   65  131 1    
   130   66   67 am   BACKBONE|DICT|INTERRES
   131   66   68 2    
   132   67  132 1    
   133   67  133 1    
   134   69   70 1    
   135   69  134 1    
   136   69  135 1    
   137   70   71 1    
   138   71  136 1    
   139   71  137 1    
@<TRIPOS>SUBSTRUCTURE
     1 UNK         1 GROUP             0       ****    0 ROOT    
