@<TRIPOS>MOLECULE
3R137
137   139    1
SMALL
USER_CHARGES


@<TRIPOS>ATOM
      1 CA         24.8485   -2.9488    0.9103 C.3       0 UNK        -0.2020 
      2 C          25.9269   -2.2057    0.1373 C.2       0 UNK         0.4855 
      3 O          25.9005   -0.9757    0.0777 O.2       0 UNK        -0.5197 
      4 N          26.8730   -2.9379   -0.4671 N.am      1 UNK        -0.4892 
      5 CA         27.9400   -2.3904   -1.3145 C.3       1 UNK         0.0835 
      6 C6         28.9700   -3.4809   -1.7108 C.3       12 UNK        -0.0855 
      7 S7         30.6721   -2.8308   -1.7562 S.3       12 UNK        -0.2931 
      8 C8         31.2324   -3.3187   -3.4212 C.3       12 UNK         0.0378 
      9 C9         30.7364   -2.3821   -4.5158 C.ar      12 UNK        -0.0802 
     10 C10        30.9994   -1.0103   -4.4404 C.ar      12 UNK        -0.0944 
     11 C11        30.6046   -0.1540   -5.4703 C.ar      12 UNK        -0.0787 
     12 C12        29.9276   -0.6747   -6.5745 C.ar      12 UNK        -0.0862 
     13 C13        29.6551   -2.0428   -6.6684 C.ar      12 UNK        -0.0733 
     14 C14        30.0682   -2.8928   -5.6348 C.ar      12 UNK        -0.0832 
     15 C15        28.9522   -2.5752   -7.9165 C.3       12 UNK         0.0240 
     16 S16        27.6909   -3.8594   -7.6038 S.3       12 UNK        -0.2522 
     17 C17        26.6230   -3.0674   -6.3568 C.3       12 UNK        -0.0967 
     18 CA         25.1192   -2.9975   -6.7508 C.3       5 UNK         0.0660 
     19 N          24.2653   -2.9272   -5.5711 N.am      5 UNK        -0.4015 
     20 C          24.0050   -3.9114   -4.7062 C.2       4 UNK         0.4946 
     21 O          24.3779   -5.0757   -4.8636 O.2       4 UNK        -0.5353 
     22 CA         23.2194   -3.5135   -3.4435 C.3       4 UNK         0.0277 
     23 CB         23.4416   -4.4934   -2.2757 C.3       4 UNK        -0.1981 
     24 N          23.6109   -2.1679   -3.0159 N.am      4 UNK        -0.4209 
     25 C          22.7741   -1.1452   -2.7918 C.2       3 UNK         0.4942 
     26 O          21.5500   -1.2366   -2.8915 O.2       3 UNK        -0.5208 
     27 CA         23.3818    0.2125   -2.3862 C.3       3 UNK         0.0250 
     28 CB         23.0284    0.5510   -0.9281 C.3       3 UNK        -0.1990 
     29 N          24.8366    0.2754   -2.5616 N.am      3 UNK        -0.4232 
     30 C          25.4439    0.5070   -3.7368 C.2       2 UNK         0.4993 
     31 O          24.8309    0.7592   -4.7726 O.2       2 UNK        -0.5286 
     32 CA         26.9852    0.4329   -3.7781 C.3       2 UNK         0.0209 
     33 CB         27.5802    1.8471   -3.6912 C.3       2 UNK        -0.1931 
     34 N          27.5838   -0.4030   -2.7287 N.am      2 UNK        -0.4546 
     35 C          27.3213   -1.7043   -2.5474 C.2       1 UNK         0.5154 
     36 O          26.5483   -2.3470   -3.2579 O.2       1 UNK        -0.5181 
     37 C          24.7745   -1.7726   -7.6203 C.2       5 UNK         0.5014 
     38 O          23.7617   -1.1085   -7.3758 O.2       5 UNK        -0.5248 
     39 N          25.6279   -1.4730   -8.6053 N.am      6 UNK        -0.4434 
     40 CA         25.6605   -0.1766   -9.2843 C.3       6 UNK         0.0363 
     41 CB         26.5285   -0.2869  -10.5484 C.3       6 UNK        -0.1936 
     42 C          26.2190    0.9010   -8.3371 C.2       6 UNK         0.5081 
     43 O          27.0479    0.5866   -7.4812 O.2       6 UNK        -0.5248 
     44 N          25.7831    2.1537   -8.5254 N.am      7 UNK        -0.4718 
     45 CA         26.1727    3.3007   -7.6928 C.3       7 UNK         0.0273 
     46 CB         25.3143    4.5178   -8.0738 C.3       7 UNK        -0.1935 
     47 C          27.6708    3.6553   -7.7617 C.2       7 UNK         0.5018 
     48 O          28.1989    4.2320   -6.8103 O.2       7 UNK        -0.5186 
     49 N          28.3222    3.2968   -8.8722 N.am      8 UNK        -0.4240 
     50 CA         29.7607    3.3736   -9.0823 C.3       8 UNK         0.0235 
     51 CB         30.1301    4.7205   -9.7265 C.3       8 UNK        -0.2000 
     52 C          30.1552    2.1970   -9.9794 C.2       8 UNK         0.4941 
     53 O          29.3661    1.7990  -10.8406 O.2       8 UNK        -0.5273 
     54 N          31.3644    1.6766   -9.7649 N.am      9 UNK        -0.4262 
     55 CA         31.9847    0.5524  -10.4611 C.3       9 UNK         0.0264 
     56 CB         31.2225   -0.7634  -10.1737 C.3       9 UNK        -0.1955 
     57 C          33.4464    0.4960   -9.9873 C.2       9 UNK         0.5031 
     58 O          33.9638    1.4999   -9.4862 O.2       9 UNK        -0.5390 
     59 N          34.0800   -0.6798  -10.0815 N.am      10 UNK        -0.4204 
     60 CA         35.3553   -0.9914   -9.4290 C.3       10 UNK         0.0237 
     61 CB         36.0205   -2.1720  -10.1618 C.3       10 UNK        -0.1985 
     62 C          35.1246   -1.2718   -7.9292 C.2       10 UNK         0.4970 
     63 O          35.2574   -2.4143   -7.4867 O.2       10 UNK        -0.4914 
     64 N          34.7142   -0.2277   -7.1993 N.am      11 UNK        -0.4285 
     65 CA         34.3162   -0.2586   -5.7855 C.3       11 UNK         0.1007 
     66 C          35.4528   -0.7224   -4.8335 C.2       11 UNK         0.5703 
     67 N          35.1146   -1.4167   -3.7552 N.am      11 UNK        -0.7361 
     68 O          36.6273   -0.4191   -5.0378 O.2       11 UNK        -0.4986 
     69 C69        33.7503    1.1118   -5.3225 C.3       12 UNK        -0.0947 
     70 S70        32.3980    1.7492   -6.3732 S.3       12 UNK        -0.2240 
     71 C71        30.9170    1.3323   -5.4036 C.3       12 UNK         0.0194 
     72 H72        23.8657   -2.7067    0.5070 H         1 UNK         0.0906 
     73 H73        24.9793   -4.0295    0.8583 H         1 UNK         0.0906 
     74 H74        24.8686   -2.6536    1.9589 H         1 UNK         0.0906 
     75 H75        26.8333   -3.9452   -0.4074 H         1 UNK         0.3140 
     76 H76        28.4434   -1.6315   -0.7109 H         1 UNK         0.1085 
     77 H77        28.7125   -3.9634   -2.6566 H         1 UNK         0.0836 
     78 H78        28.9767   -4.2835   -0.9714 H         1 UNK         0.0836 
     79 H79        30.9336   -4.3500   -3.6159 H         1 UNK         0.0731 
     80 H80        32.3229   -3.3135   -3.4342 H         1 UNK         0.0731 
     81 H81        31.5275   -0.6120   -3.5852 H         1 UNK         0.1312 
     82 H82        29.6243   -0.0082   -7.3707 H         1 UNK         0.1406 
     83 H83        29.8781   -3.9547   -5.7094 H         1 UNK         0.1631 
     84 H84        29.7058   -2.9909   -8.5861 H         1 UNK         0.0717 
     85 H85        28.4827   -1.7542   -8.4580 H         1 UNK         0.0717 
     86 H86        26.7469   -3.6760   -5.4605 H         1 UNK         0.0934 
     87 H87        27.0001   -2.0802   -6.0822 H         1 UNK         0.0934 
     88 H88        24.8403   -3.8911   -7.3127 H         1 UNK         0.0739 
     89 H89        23.8600   -2.0103   -5.4242 H         1 UNK         0.3093 
     90 H90        22.1626   -3.5377   -3.7171 H         1 UNK         0.0818 
     91 H91        23.1229   -5.5020   -2.5418 H         1 UNK         0.0819 
     92 H92        24.4938   -4.5449   -1.9931 H         1 UNK         0.0819 
     93 H93        22.8700   -4.1970   -1.3964 H         1 UNK         0.0819 
     94 H94        24.6146   -2.0100   -2.9699 H         1 UNK         0.3041 
     95 H95        22.9226    0.9723   -3.0225 H         1 UNK         0.0784 
     96 H96        21.9476    0.6146   -0.7950 H         1 UNK         0.0793 
     97 H97        23.3938   -0.2058   -0.2344 H         1 UNK         0.0793 
     98 H98        23.4473    1.5120   -0.6292 H         1 UNK         0.0793 
     99 H99        25.4010    0.0549   -1.7474 H         1 UNK         0.3024 
    100 H100       27.2643   -0.0001   -4.7419 H         1 UNK         0.1171 
    101 H101       27.2845    2.3543   -2.7720 H         1 UNK         0.0786 
    102 H102       27.2440    2.4612   -4.5279 H         1 UNK         0.0786 
    103 H103       28.6679    1.8257   -3.7250 H         1 UNK         0.0786 
    104 H104       28.2077    0.0617   -2.0848 H         1 UNK         0.2977 
    105 H105       26.4424   -2.0614   -8.7100 H         1 UNK         0.3127 
    106 H106       24.6432    0.0942   -9.5756 H         1 UNK         0.0770 
    107 H107       27.5686   -0.5117  -10.3106 H         1 UNK         0.0814 
    108 H108       26.5245    0.6500  -11.1070 H         1 UNK         0.0814 
    109 H109       26.1602   -1.0638  -11.2186 H         1 UNK         0.0814 
    110 H110       25.1107    2.3327   -9.2579 H         1 UNK         0.2983 
    111 H111       25.9541    3.0386   -6.6549 H         1 UNK         0.0947 
    112 H112       24.2523    4.3152   -7.9334 H         1 UNK         0.0806 
    113 H113       25.4682    4.8114   -9.1129 H         1 UNK         0.0806 
    114 H114       25.5619    5.3794   -7.4519 H         1 UNK         0.0806 
    115 H115       27.8252    2.7820   -9.5882 H         1 UNK         0.3000 
    116 H116       30.2740    3.2728   -8.1233 H         1 UNK         0.0850 
    117 H117       31.2054    4.7910   -9.8949 H         1 UNK         0.0810 
    118 H118       29.8462    5.5562   -9.0866 H         1 UNK         0.0810 
    119 H119       29.6373    4.8539  -10.6905 H         1 UNK         0.0810 
    120 H120       31.9814    2.1002   -9.0797 H         1 UNK         0.3040 
    121 H121       31.9788    0.7577  -11.5331 H         1 UNK         0.0766 
    122 H122       31.3158   -1.0554   -9.1272 H         1 UNK         0.0812 
    123 H123       30.1603   -0.6791  -10.4001 H         1 UNK         0.0812 
    124 H124       31.5999   -1.5854  -10.7822 H         1 UNK         0.0812 
    125 H125       33.5805   -1.4613  -10.4809 H         1 UNK         0.3205 
    126 H126       36.0237   -0.1309   -9.5080 H         1 UNK         0.0754 
    127 H127       36.9777   -2.4250   -9.7036 H         1 UNK         0.0769 
    128 H128       36.2170   -1.9292  -11.2062 H         1 UNK         0.0769 
    129 H129       35.3997   -3.0687  -10.1373 H         1 UNK         0.0769 
    130 H130       34.5894    0.6593   -7.6732 H         1 UNK         0.2981 
    131 H131       33.5145   -0.9954   -5.7179 H         1 UNK         0.0541 
    132 H132       34.1545   -1.6549   -3.5673 H         1 UNK         0.3459 
    133 H133       35.8379   -1.7106   -3.1176 H         1 UNK         0.3459 
    134 H134       34.5423    1.8629   -5.3239 H         1 UNK         0.0612 
    135 H135       33.3982    1.0513   -4.2914 H         1 UNK         0.0612 
    136 H136       30.0718    1.8980   -5.7995 H         1 UNK         0.0624 
    137 H137       31.0485    1.6587   -4.3711 H         1 UNK         0.0624 
@<TRIPOS>BOND
     1    1    2 1    
     2    1   72 1    
     3    1   73 1    
     4    1   74 1    
     5    2    3 2    
     6    2    4 am   BACKBONE|DICT|INTERRES
     7    4    5 1    
     8    4   75 1    
     9    5    6 1    
    10    5   35 1    
    11    5   76 1    
    12    6    7 1    
    13    6   77 1    
    14    6   78 1    
    15    7    8 1    
    16    8    9 1    
    17    8   79 1    
    18    8   80 1    
    19    9   10 ar   
    20    9   14 ar   
    21   10   11 ar   
    22   10   81 1    
    23   11   12 ar   
    24   11   71 1    
    25   12   13 ar   
    26   12   82 1    
    27   13   14 ar   
    28   13   15 1    
    29   14   83 1    
    30   15   16 1    
    31   15   84 1    
    32   15   85 1    
    33   16   17 1    
    34   17   18 1    
    35   17   86 1    
    36   17   87 1    
    37   18   19 1    
    38   18   37 1    
    39   18   88 1    
    40   19   20 am   BACKBONE|DICT|INTERRES
    41   19   89 1    
    42   20   21 2    
    43   20   22 1    
    44   22   23 1    
    45   22   24 1    
    46   22   90 1    
    47   23   91 1    
    48   23   92 1    
    49   23   93 1    
    50   24   25 am   BACKBONE|DICT|INTERRES
    51   24   94 1    
    52   25   26 2    
    53   25   27 1    
    54   27   28 1    
    55   27   29 1    
    56   27   95 1    
    57   28   96 1    
    58   28   97 1    
    59   28   98 1    
    60   29   30 am   BACKBONE|DICT|INTERRES
    61   29   99 1    
    62   30   31 2    
    63   30   32 1    
    64   32   33 1    
    65   32   34 1    
    66   32  100 1    
    67   33  101 1    
    68   33  102 1    
    69   33  103 1    
    70   34   35 am   BACKBONE|DICT|INTERRES
    71   34  104 1    
    72   35   36 2    
    73   37   38 2    
    74   37   39 am   BACKBONE|DICT|INTERRES
    75   39   40 1    
    76   39  105 1    
    77   40   41 1    
    78   40   42 1    
    79   40  106 1    
    80   41  107 1    
    81   41  108 1    
    82   41  109 1    
    83   42   43 2    
    84   42   44 am   BACKBONE|DICT|INTERRES
    85   44   45 1    
    86   44  110 1    
    87   45   46 1    
    88   45   47 1    
    89   45  111 1    
    90   46  112 1    
    91   46  113 1    
    92   46  114 1    
    93   47   48 2    
    94   47   49 am   BACKBONE|DICT|INTERRES
    95   49   50 1    
    96   49  115 1    
    97   50   51 1    
    98   50   52 1    
    99   50  116 1    
   100   51  117 1    
   101   51  118 1    
   102   51  119 1    
   103   52   53 2    
   104   52   54 am   BACKBONE|DICT|INTERRES
   105   54   55 1    
   106   54  120 1    
   107   55   56 1    
   108   55   57 1    
   109   55  121 1    
   110   56  122 1    
   111   56  123 1    
   112   56  124 1    
   113   57   58 2    
   114   57   59 am   BACKBONE|DICT|INTERRES
   115   59   60 1    
   116   59  125 1    
   117   60   61 1    
   118   60   62 1    
   119   60  126 1    
   120   61  127 1    
   121   61  128 1    
   122   61  129 1    
   123   62   63 2    
   124   62   64 am   BACKBONE|DICT|INTERRES
   125   64   65 1    
   126   64  130 1    
   127   65   66 1    
   128   65   69 1    
   129   65  131 1    
   130   66   67 am   BACKBONE|DICT|INTERRES
   131   66   68 2    
   132   67  132 1    
   133   67  133 1    
   134   69   70 1    
   135   69  134 1    
   136   69  135 1    
   137   70   71 1    
   138   71  136 1    
   139   71  137 1    
@<TRIPOS>SUBSTRUCTURE
     1 UNK         1 GROUP             0       ****    0 ROOT    
