@<TRIPOS>MOLECULE
3R137
137   139    1
SMALL
USER_CHARGES


@<TRIPOS>ATOM
      1 CA         25.4287   -9.3248   -0.6970 C.3       0 UNK        -0.2020 
      2 C          26.0068   -7.9300   -0.5086 C.2       0 UNK         0.4855 
      3 O          25.8035   -7.3202    0.5421 O.2       0 UNK        -0.5197 
      4 N          26.7328   -7.4239   -1.5135 N.am      1 UNK        -0.4892 
      5 CA         27.2971   -6.0702   -1.5342 C.3       1 UNK         0.0835 
      6 C6         28.4534   -5.9695   -2.5612 C.3       12 UNK        -0.0855 
      7 S7         29.6319   -4.6426   -2.1426 S.3       12 UNK        -0.2931 
      8 C8         29.2784   -3.4499   -3.4668 C.3       12 UNK         0.0378 
      9 C9         29.8780   -2.0905   -3.1515 C.ar      12 UNK        -0.0802 
     10 C10        31.1036   -1.7074   -3.7018 C.ar      12 UNK        -0.0944 
     11 C11        31.6273   -0.4357   -3.4495 C.ar      12 UNK        -0.0787 
     12 C12        30.9193    0.4522   -2.6327 C.ar      12 UNK        -0.0862 
     13 C13        29.6916    0.0774   -2.0753 C.ar      12 UNK        -0.0733 
     14 C14        29.1855   -1.1999   -2.3282 C.ar      12 UNK        -0.0832 
     15 C15        28.8882    1.0601   -1.2322 C.3       12 UNK         0.0240 
     16 S16        27.3278    1.5506   -2.0457 S.3       12 UNK        -0.2522 
     17 C17        27.9395    2.2095   -3.6327 C.3       12 UNK        -0.0967 
     18 CA         27.7658    1.1726   -4.7805 C.3       5 UNK         0.0660 
     19 N          26.3627    0.9672   -5.1584 N.am      5 UNK        -0.4015 
     20 C          25.5843    1.8092   -5.8601 C.2       4 UNK         0.4946 
     21 O          25.9812    2.8860   -6.3116 O.2       4 UNK        -0.5353 
     22 CA         24.1237    1.3910   -6.1289 C.3       4 UNK         0.0277 
     23 CB         23.7217    1.6434   -7.5930 C.3       4 UNK        -0.1981 
     24 N          23.8634   -0.0125   -5.7986 N.am      4 UNK        -0.4209 
     25 C          23.4088   -0.4475   -4.6176 C.2       3 UNK         0.4942 
     26 O          23.1018    0.3002   -3.6869 O.2       3 UNK        -0.5208 
     27 CA         23.2826   -1.9723   -4.4262 C.3       3 UNK         0.0250 
     28 CB         23.8588   -2.8178   -5.5878 C.3       3 UNK        -0.1990 
     29 N          23.8642   -2.3882   -3.1459 N.am      3 UNK        -0.4232 
     30 C          25.1351   -2.2260   -2.7470 C.2       2 UNK         0.4993 
     31 O          26.0213   -1.7436   -3.4556 O.2       2 UNK        -0.5286 
     32 CA         25.4798   -2.6522   -1.3046 C.3       2 UNK         0.0209 
     33 CB         24.2466   -2.9059   -0.4062 C.3       2 UNK        -0.1931 
     34 N          26.3893   -3.8050   -1.2558 N.am      2 UNK        -0.4546 
     35 C          26.1912   -5.0201   -1.7904 C.2       1 UNK         0.5154 
     36 O          25.1993   -5.3299   -2.4568 O.2       1 UNK        -0.5181 
     37 C          28.6394    1.4479   -6.0202 C.2       5 UNK         0.5014 
     38 O          28.7735    0.5565   -6.8608 O.2       5 UNK        -0.5248 
     39 N          29.1803    2.6691   -6.1395 N.am      6 UNK        -0.4434 
     40 CA         30.0415    3.1299   -7.2312 C.3       6 UNK         0.0363 
     41 CB         30.4276    4.5960   -6.9816 C.3       6 UNK        -0.1936 
     42 C          29.4393    2.9672   -8.6348 C.2       6 UNK         0.5081 
     43 O          30.1859    2.6957   -9.5737 O.2       6 UNK        -0.5248 
     44 N          28.1123    3.1045   -8.7525 N.am      7 UNK        -0.4718 
     45 CA         27.3848    2.9321  -10.0113 C.3       7 UNK         0.0273 
     46 CB         26.0815    3.7434   -9.9488 C.3       7 UNK        -0.1935 
     47 C          27.1012    1.4587  -10.3599 C.2       7 UNK         0.5018 
     48 O          26.7719    1.1804  -11.5135 O.2       7 UNK        -0.5186 
     49 N          27.2195    0.5490   -9.3819 N.am      8 UNK        -0.4240 
     50 CA         26.9974   -0.8881   -9.5558 C.3       8 UNK         0.0235 
     51 CB         26.1906   -1.4382   -8.3658 C.3       8 UNK        -0.2000 
     52 C          28.3249   -1.6423   -9.7004 C.2       8 UNK         0.4941 
     53 O          28.4808   -2.4238  -10.6388 O.2       8 UNK        -0.5273 
     54 N          29.2515   -1.4042   -8.7640 N.am      9 UNK        -0.4262 
     55 CA         30.5310   -2.1079   -8.6582 C.3       9 UNK         0.0264 
     56 CB         30.9274   -2.1677   -7.1747 C.3       9 UNK        -0.1955 
     57 C          31.6576   -1.4781   -9.4950 C.2       9 UNK         0.5031 
     58 O          32.7236   -2.0861   -9.5984 O.2       9 UNK        -0.5390 
     59 N          31.4257   -0.2771  -10.0490 N.am      10 UNK        -0.4204 
     60 CA         32.3678    0.5421  -10.8280 C.3       10 UNK         0.0237 
     61 CB         32.8116   -0.1821  -12.1180 C.3       10 UNK        -0.1985 
     62 C          33.5607    1.0781  -10.0067 C.2       10 UNK         0.4970 
     63 O          34.5594    1.4980  -10.5935 O.2       10 UNK        -0.4914 
     64 N          33.4355    1.0785   -8.6730 N.am      11 UNK        -0.4285 
     65 CA         34.4275    1.5978   -7.7185 C.3       11 UNK         0.1007 
     66 C          34.4632    3.1497   -7.5860 C.2       11 UNK         0.5703 
     67 N          33.6045    3.8990   -8.2676 N.am      11 UNK        -0.7361 
     68 O          35.3031    3.6861   -6.8670 O.2       11 UNK        -0.4986 
     69 C69        34.3280    0.8770   -6.3456 C.3       12 UNK        -0.0947 
     70 S70        32.6740    0.9570   -5.5818 S.3       12 UNK        -0.2240 
     71 C71        32.9495   -0.0200   -4.0751 C.3       12 UNK         0.0194 
     72 H72        25.7946   -9.9915    0.0835 H         1 UNK         0.0906 
     73 H73        24.3413   -9.2911   -0.6345 H         1 UNK         0.0906 
     74 H74        25.6995   -9.7525   -1.6622 H         1 UNK         0.0906 
     75 H75        26.8315   -7.9538   -2.3680 H         1 UNK         0.3140 
     76 H76        27.7068   -5.8860   -0.5377 H         1 UNK         0.1085 
     77 H77        29.0298   -6.8964   -2.5633 H         1 UNK         0.0836 
     78 H78        28.0787   -5.8557   -3.5808 H         1 UNK         0.0836 
     79 H79        28.2005   -3.3488   -3.5997 H         1 UNK         0.0731 
     80 H80        29.6688   -3.8338   -4.4103 H         1 UNK         0.0731 
     81 H81        31.6439   -2.3945   -4.3381 H         1 UNK         0.1312 
     82 H82        31.3176    1.4410   -2.4500 H         1 UNK         0.1406 
     83 H83        28.2294   -1.4861   -1.9148 H         1 UNK         0.1631 
     84 H84        29.4733    1.9550   -1.0147 H         1 UNK         0.0717 
     85 H85        28.6573    0.6029   -0.2691 H         1 UNK         0.0717 
     86 H86        27.4033    3.1339   -3.8546 H         1 UNK         0.0934 
     87 H87        28.9858    2.4885   -3.4967 H         1 UNK         0.0934 
     88 H88        28.1103    0.2041   -4.4194 H         1 UNK         0.0739 
     89 H89        25.9599    0.1035   -4.8164 H         1 UNK         0.3093 
     90 H90        23.4961    2.0303   -5.5042 H         1 UNK         0.0818 
     91 H91        23.6929    2.7129   -7.8022 H         1 UNK         0.0819 
     92 H92        24.4210    1.1910   -8.2959 H         1 UNK         0.0819 
     93 H93        22.7264    1.2540   -7.8081 H         1 UNK         0.0819 
     94 H94        24.0916   -0.6974   -6.5038 H         1 UNK         0.3041 
     95 H95        22.2138   -2.1820   -4.3624 H         1 UNK         0.0784 
     96 H96        23.3368   -2.6195   -6.5247 H         1 UNK         0.0793 
     97 H97        24.9218   -2.6331   -5.7478 H         1 UNK         0.0793 
     98 H98        23.7437   -3.8828   -5.3841 H         1 UNK         0.0793 
     99 H99        23.2151   -2.7822   -2.4800 H         1 UNK         0.3024 
    100 H100       26.0211   -1.8079   -0.8742 H         1 UNK         0.1171 
    101 H101       23.5841   -2.0392   -0.3887 H         1 UNK         0.0786 
    102 H102       23.6637   -3.7679   -0.7329 H         1 UNK         0.0786 
    103 H103       24.5496   -3.0914    0.6245 H         1 UNK         0.0786 
    104 H104       27.2608   -3.6474   -0.7687 H         1 UNK         0.2977 
    105 H105       28.9701    3.3513   -5.4264 H         1 UNK         0.3127 
    106 H106       30.9502    2.5293   -7.2098 H         1 UNK         0.0770 
    107 H107       29.5488    5.2359   -6.8932 H         1 UNK         0.0814 
    108 H108       31.0308    4.9898   -7.8004 H         1 UNK         0.0814 
    109 H109       31.0164    4.7005   -6.0700 H         1 UNK         0.0814 
    110 H110       27.5611    3.2908   -7.9219 H         1 UNK         0.2983 
    111 H111       27.9898    3.3377  -10.8258 H         1 UNK         0.0947 
    112 H112       25.4941    3.6194  -10.8598 H         1 UNK         0.0806 
    113 H113       26.2851    4.8085   -9.8386 H         1 UNK         0.0806 
    114 H114       25.4579    3.4363   -9.1112 H         1 UNK         0.0806 
    115 H115       27.5651    0.8507   -8.4776 H         1 UNK         0.3000 
    116 H116       26.4151   -1.0740  -10.4611 H         1 UNK         0.0850 
    117 H117       26.1008   -2.5241   -8.4229 H         1 UNK         0.0810 
    118 H118       25.1787   -1.0372   -8.3634 H         1 UNK         0.0810 
    119 H119       26.6549   -1.1998   -7.4080 H         1 UNK         0.0810 
    120 H120       29.0460   -0.7296   -8.0257 H         1 UNK         0.3040 
    121 H121       30.4052   -3.1332   -9.0130 H         1 UNK         0.0766 
    122 H122       31.0206   -1.1711   -6.7441 H         1 UNK         0.0812 
    123 H123       31.8826   -2.6764   -7.0373 H         1 UNK         0.0812 
    124 H124       30.1837   -2.7109   -6.5922 H         1 UNK         0.0812 
    125 H125       30.5217    0.1459   -9.8857 H         1 UNK         0.3205 
    126 H126       31.8086    1.4240  -11.1410 H         1 UNK         0.0754 
    127 H127       33.3616    0.4922  -12.7756 H         1 UNK         0.0769 
    128 H128       31.9540   -0.5511  -12.6807 H         1 UNK         0.0769 
    129 H129       33.4648   -1.0290  -11.9064 H         1 UNK         0.0769 
    130 H130       32.5818    0.7289   -8.2659 H         1 UNK         0.2981 
    131 H131       35.4097    1.3410   -8.1194 H         1 UNK         0.0541 
    132 H132       33.6550    4.9014   -8.1823 H         1 UNK         0.3459 
    133 H133       32.9262    3.4743   -8.8787 H         1 UNK         0.3459 
    134 H134       35.0635    1.2710   -5.6418 H         1 UNK         0.0612 
    135 H135       34.5811   -0.1760   -6.4789 H         1 UNK         0.0612 
    136 H136       33.5436   -0.9030   -4.3161 H         1 UNK         0.0624 
    137 H137       33.5358    0.5657   -3.3657 H         1 UNK         0.0624 
@<TRIPOS>BOND
     1    1    2 1    
     2    1   72 1    
     3    1   73 1    
     4    1   74 1    
     5    2    3 2    
     6    2    4 am   BACKBONE|DICT|INTERRES
     7    4    5 1    
     8    4   75 1    
     9    5    6 1    
    10    5   35 1    
    11    5   76 1    
    12    6    7 1    
    13    6   77 1    
    14    6   78 1    
    15    7    8 1    
    16    8    9 1    
    17    8   79 1    
    18    8   80 1    
    19    9   10 ar   
    20    9   14 ar   
    21   10   11 ar   
    22   10   81 1    
    23   11   12 ar   
    24   11   71 1    
    25   12   13 ar   
    26   12   82 1    
    27   13   14 ar   
    28   13   15 1    
    29   14   83 1    
    30   15   16 1    
    31   15   84 1    
    32   15   85 1    
    33   16   17 1    
    34   17   18 1    
    35   17   86 1    
    36   17   87 1    
    37   18   19 1    
    38   18   37 1    
    39   18   88 1    
    40   19   20 am   BACKBONE|DICT|INTERRES
    41   19   89 1    
    42   20   21 2    
    43   20   22 1    
    44   22   23 1    
    45   22   24 1    
    46   22   90 1    
    47   23   91 1    
    48   23   92 1    
    49   23   93 1    
    50   24   25 am   BACKBONE|DICT|INTERRES
    51   24   94 1    
    52   25   26 2    
    53   25   27 1    
    54   27   28 1    
    55   27   29 1    
    56   27   95 1    
    57   28   96 1    
    58   28   97 1    
    59   28   98 1    
    60   29   30 am   BACKBONE|DICT|INTERRES
    61   29   99 1    
    62   30   31 2    
    63   30   32 1    
    64   32   33 1    
    65   32   34 1    
    66   32  100 1    
    67   33  101 1    
    68   33  102 1    
    69   33  103 1    
    70   34   35 am   BACKBONE|DICT|INTERRES
    71   34  104 1    
    72   35   36 2    
    73   37   38 2    
    74   37   39 am   BACKBONE|DICT|INTERRES
    75   39   40 1    
    76   39  105 1    
    77   40   41 1    
    78   40   42 1    
    79   40  106 1    
    80   41  107 1    
    81   41  108 1    
    82   41  109 1    
    83   42   43 2    
    84   42   44 am   BACKBONE|DICT|INTERRES
    85   44   45 1    
    86   44  110 1    
    87   45   46 1    
    88   45   47 1    
    89   45  111 1    
    90   46  112 1    
    91   46  113 1    
    92   46  114 1    
    93   47   48 2    
    94   47   49 am   BACKBONE|DICT|INTERRES
    95   49   50 1    
    96   49  115 1    
    97   50   51 1    
    98   50   52 1    
    99   50  116 1    
   100   51  117 1    
   101   51  118 1    
   102   51  119 1    
   103   52   53 2    
   104   52   54 am   BACKBONE|DICT|INTERRES
   105   54   55 1    
   106   54  120 1    
   107   55   56 1    
   108   55   57 1    
   109   55  121 1    
   110   56  122 1    
   111   56  123 1    
   112   56  124 1    
   113   57   58 2    
   114   57   59 am   BACKBONE|DICT|INTERRES
   115   59   60 1    
   116   59  125 1    
   117   60   61 1    
   118   60   62 1    
   119   60  126 1    
   120   61  127 1    
   121   61  128 1    
   122   61  129 1    
   123   62   63 2    
   124   62   64 am   BACKBONE|DICT|INTERRES
   125   64   65 1    
   126   64  130 1    
   127   65   66 1    
   128   65   69 1    
   129   65  131 1    
   130   66   67 am   BACKBONE|DICT|INTERRES
   131   66   68 2    
   132   67  132 1    
   133   67  133 1    
   134   69   70 1    
   135   69  134 1    
   136   69  135 1    
   137   70   71 1    
   138   71  136 1    
   139   71  137 1    
@<TRIPOS>SUBSTRUCTURE
     1 UNK         1 GROUP             0       ****    0 ROOT    
