@<TRIPOS>MOLECULE
3R137
137   139    1
SMALL
USER_CHARGES


@<TRIPOS>ATOM
      1 CA         28.1322    1.7505    0.3280 C.3       0 UNK        -0.2020 
      2 C          27.6742    0.7699   -0.7407 C.2       0 UNK         0.4855 
      3 O          27.0413    1.1766   -1.7136 O.2       0 UNK        -0.5197 
      4 N          27.9899   -0.5201   -0.5685 N.am      1 UNK        -0.4892 
      5 CA         27.6594   -1.5987   -1.5110 C.3       1 UNK         0.0835 
      6 C6         28.4801   -2.8805   -1.2346 C.3       12 UNK        -0.0855 
      7 S7         30.2804   -2.5933   -1.2532 S.3       12 UNK        -0.2931 
      8 C8         30.8789   -4.1455   -1.9876 C.3       12 UNK         0.0378 
      9 C9         31.0259   -4.0352   -3.4974 C.ar      12 UNK        -0.0802 
     10 C10        32.2321   -3.5798   -4.0356 C.ar      12 UNK        -0.0944 
     11 C11        32.4225   -3.5408   -5.4174 C.ar      12 UNK        -0.0787 
     12 C12        31.3793   -3.9314   -6.2616 C.ar      12 UNK        -0.0862 
     13 C13        30.1538   -4.3685   -5.7453 C.ar      12 UNK        -0.0733 
     14 C14        29.9904   -4.4291   -4.3535 C.ar      12 UNK        -0.0832 
     15 C15        29.0796   -4.8145   -6.7430 C.3       12 UNK         0.0240 
     16 S16        27.3967   -5.1223   -6.0907 S.3       12 UNK        -0.2522 
     17 C17        26.8074   -3.4905   -5.5216 C.3       12 UNK        -0.0967 
     18 CA         26.6027   -2.4379   -6.6521 C.3       5 UNK         0.0660 
     19 N          25.3672   -1.6576   -6.4649 N.am      5 UNK        -0.4015 
     20 C          24.9604   -0.6006   -7.1885 C.2       4 UNK         0.4946 
     21 O          25.6316   -0.0759   -8.0748 O.2       4 UNK        -0.5353 
     22 CA         23.5624   -0.0150   -6.9148 C.3       4 UNK         0.0277 
     23 CB         22.6375   -0.2654   -8.1181 C.3       4 UNK        -0.1981 
     24 N          22.9011   -0.5005   -5.7007 N.am      4 UNK        -0.4209 
     25 C          23.2576   -0.1810   -4.4505 C.2       3 UNK         0.4942 
     26 O          24.2532    0.4926   -4.1825 O.2       3 UNK        -0.5208 
     27 CA         22.3616   -0.6889   -3.3103 C.3       3 UNK         0.0250 
     28 CB         21.2795   -1.7052   -3.7384 C.3       3 UNK        -0.1990 
     29 N          23.2153   -1.2766   -2.2872 N.am      3 UNK        -0.4232 
     30 C          22.9920   -1.2838   -0.9726 C.2       2 UNK         0.4993 
     31 O          21.9952   -0.7881   -0.4451 O.2       2 UNK        -0.5286 
     32 CA         24.0517   -1.9635   -0.0853 C.3       2 UNK         0.0209 
     33 CB         23.8170   -3.4861   -0.0289 C.3       2 UNK        -0.1931 
     34 N          25.4547   -1.6595   -0.4169 N.am      2 UNK        -0.4546 
     35 C          26.1582   -1.9509   -1.5235 C.2       1 UNK         0.5154 
     36 O          25.6830   -2.4922   -2.5230 O.2       1 UNK        -0.5181 
     37 C          27.8572   -1.5581   -6.8250 C.2       5 UNK         0.5014 
     38 O          28.4606   -1.5513   -7.8998 O.2       5 UNK        -0.5248 
     39 N          28.2027   -0.8074   -5.7706 N.am      6 UNK        -0.4434 
     40 CA         29.3955    0.0378   -5.7337 C.3       6 UNK         0.0363 
     41 CB         29.7065    0.4350   -4.2826 C.3       6 UNK        -0.1936 
     42 C          29.2918    1.2793   -6.6318 C.2       6 UNK         0.5081 
     43 O          30.3277    1.7930   -7.0496 O.2       6 UNK        -0.5248 
     44 N          28.0675    1.7336   -6.9306 N.am      7 UNK        -0.4718 
     45 CA         27.8106    2.8365   -7.8568 C.3       7 UNK         0.0273 
     46 CB         26.3841    3.3727   -7.6516 C.3       7 UNK        -0.1935 
     47 C          28.0414    2.4108   -9.3146 C.2       7 UNK         0.5018 
     48 O          28.7444    3.1100  -10.0439 O.2       7 UNK        -0.5186 
     49 N          27.4726    1.2600   -9.7008 N.am      8 UNK        -0.4240 
     50 CA         27.5968    0.6689  -11.0339 C.3       8 UNK         0.0235 
     51 CB         26.5903   -0.4838  -11.1809 C.3       8 UNK        -0.2000 
     52 C          29.0220    0.1849  -11.3376 C.2       8 UNK         0.4941 
     53 O          29.5138    0.4142  -12.4432 O.2       8 UNK        -0.5273 
     54 N          29.6641   -0.4596  -10.3534 N.am      9 UNK        -0.4262 
     55 CA         31.0382   -0.9564  -10.4596 C.3       9 UNK         0.0264 
     56 CB         31.2358   -2.0811   -9.4341 C.3       9 UNK        -0.1955 
     57 C          32.1114    0.1360  -10.2839 C.2       9 UNK         0.5031 
     58 O          33.2736   -0.1262  -10.5970 O.2       9 UNK        -0.5390 
     59 N          31.7161    1.3206   -9.7899 N.am      10 UNK        -0.4204 
     60 CA         32.5589    2.4751   -9.4492 C.3       10 UNK         0.0237 
     61 CB         33.2117    3.0817  -10.7099 C.3       10 UNK        -0.1985 
     62 C          33.5697    2.1544   -8.3287 C.2       10 UNK         0.4970 
     63 O          34.7417    2.5253   -8.4210 O.2       10 UNK        -0.4914 
     64 N          33.0808    1.4679   -7.2909 N.am      11 UNK        -0.4285 
     65 CA         33.8294    1.0765   -6.0871 C.3       11 UNK         0.1007 
     66 C          33.6727    2.0907   -4.9196 C.2       11 UNK         0.5703 
     67 N          32.7538    3.0483   -4.9874 N.am      11 UNK        -0.7361 
     68 O          34.4092    2.0156   -3.9391 O.2       11 UNK        -0.4986 
     69 C69        33.4642   -0.3596   -5.6233 C.3       12 UNK        -0.0947 
     70 S70        33.7279   -1.5957   -6.9354 S.3       12 UNK        -0.2240 
     71 C71        33.7783   -3.1481   -5.9918 C.3       12 UNK         0.0194 
     72 H72        28.6806    1.2553    1.1291 H         1 UNK         0.0906 
     73 H73        28.7833    2.5057   -0.1117 H         1 UNK         0.0906 
     74 H74        27.2723    2.2559    0.7669 H         1 UNK         0.0906 
     75 H75        28.5432   -0.7970    0.2310 H         1 UNK         0.3140 
     76 H76        27.9054   -1.2498   -2.5154 H         1 UNK         0.1085 
     77 H77        28.2180   -3.3066   -0.2638 H         1 UNK         0.0836 
     78 H78        28.2347   -3.6436   -1.9755 H         1 UNK         0.0836 
     79 H79        31.8463   -4.3859   -1.5437 H         1 UNK         0.0731 
     80 H80        30.2193   -4.9732   -1.7219 H         1 UNK         0.0731 
     81 H81        33.0363   -3.2879   -3.3739 H         1 UNK         0.1312 
     82 H82        31.5343   -3.9163   -7.3311 H         1 UNK         0.1406 
     83 H83        29.0704   -4.8026   -3.9284 H         1 UNK         0.1631 
     84 H84        29.4224   -5.7457   -7.1958 H         1 UNK         0.0717 
     85 H85        29.0160   -4.0995   -7.5626 H         1 UNK         0.0717 
     86 H86        27.4515   -3.1333   -4.7168 H         1 UNK         0.0934 
     87 H87        25.8544   -3.6932   -5.0301 H         1 UNK         0.0934 
     88 H88        26.4597   -2.9681   -7.5959 H         1 UNK         0.0739 
     89 H89        24.7355   -1.9962   -5.7555 H         1 UNK         0.3093 
     90 H90        23.6930    1.0645   -6.8116 H         1 UNK         0.0818 
     91 H91        21.6743    0.2289   -7.9899 H         1 UNK         0.0819 
     92 H92        23.0762    0.1243   -9.0382 H         1 UNK         0.0819 
     93 H93        22.4533   -1.3294   -8.2719 H         1 UNK         0.0819 
     94 H94        22.0756   -1.0680   -5.8316 H         1 UNK         0.3041 
     95 H95        21.8656    0.1918   -2.8969 H         1 UNK         0.0784 
     96 H96        20.5850   -1.2720   -4.4593 H         1 UNK         0.0793 
     97 H97        21.7150   -2.6021   -4.1812 H         1 UNK         0.0793 
     98 H98        20.6821   -2.0217   -2.8830 H         1 UNK         0.0793 
     99 H99        24.0955   -1.6782   -2.6082 H         1 UNK         0.3024 
    100 H100       23.8970   -1.5738    0.9226 H         1 UNK         0.1171 
    101 H101       24.4979   -3.9663    0.6739 H         1 UNK         0.0786 
    102 H102       23.9535   -3.9571   -1.0029 H         1 UNK         0.0786 
    103 H103       22.8014   -3.7115    0.2995 H         1 UNK         0.0786 
    104 H104       25.9626   -1.1722    0.3086 H         1 UNK         0.2977 
    105 H105       27.6179   -0.8177   -4.9482 H         1 UNK         0.3127 
    106 H106       30.2317   -0.5567   -6.1083 H         1 UNK         0.0770 
    107 H107       30.5815    1.0843   -4.2331 H         1 UNK         0.0814 
    108 H108       29.9253   -0.4407   -3.6711 H         1 UNK         0.0814 
    109 H109       28.8771    0.9740   -3.8238 H         1 UNK         0.0814 
    110 H110       27.2657    1.2257   -6.5858 H         1 UNK         0.2983 
    111 H111       28.5099    3.6452   -7.6315 H         1 UNK         0.0947 
    112 H112       26.1890    4.2179   -8.3130 H         1 UNK         0.0806 
    113 H113       26.2354    3.7212   -6.6295 H         1 UNK         0.0806 
    114 H114       25.6273    2.6164   -7.8607 H         1 UNK         0.0806 
    115 H115       26.8905    0.7516   -9.0340 H         1 UNK         0.3000 
    116 H116       27.3439    1.4389  -11.7659 H         1 UNK         0.0850 
    117 H117       26.6508   -0.9337  -12.1728 H         1 UNK         0.0810 
    118 H118       25.5667   -0.1348  -11.0432 H         1 UNK         0.0810 
    119 H119       26.7728   -1.2729  -10.4497 H         1 UNK         0.0810 
    120 H120       29.1701   -0.6637   -9.4867 H         1 UNK         0.3040 
    121 H121       31.1756   -1.3848  -11.4548 H         1 UNK         0.0766 
    122 H122       32.2342   -2.5133   -9.5130 H         1 UNK         0.0812 
    123 H123       31.1160   -1.7130   -8.4147 H         1 UNK         0.0812 
    124 H124       30.5187   -2.8881   -9.5850 H         1 UNK         0.0812 
    125 H125       30.7377    1.4215   -9.5550 H         1 UNK         0.3205 
    126 H126       31.8833    3.2274   -9.0391 H         1 UNK         0.0754 
    127 H127       33.7279    4.0126  -10.4719 H         1 UNK         0.0769 
    128 H128       32.4648    3.3110  -11.4701 H         1 UNK         0.0769 
    129 H129       33.9459    2.4082  -11.1529 H         1 UNK         0.0769 
    130 H130       32.0780    1.3029   -7.2648 H         1 UNK         0.2981 
    131 H131       34.8935    1.0711   -6.3300 H         1 UNK         0.0541 
    132 H132       32.1315    3.1038   -5.7790 H         1 UNK         0.3459 
    133 H133       32.6690    3.7057   -4.2287 H         1 UNK         0.3459 
    134 H134       32.4246   -0.4136   -5.3004 H         1 UNK         0.0612 
    135 H135       34.0692   -0.6442   -4.7604 H         1 UNK         0.0612 
    136 H136       34.1214   -3.9434   -6.6548 H         1 UNK         0.0624 
    137 H137       34.5297   -3.0644   -5.2051 H         1 UNK         0.0624 
@<TRIPOS>BOND
     1    1    2 1    
     2    1   72 1    
     3    1   73 1    
     4    1   74 1    
     5    2    3 2    
     6    2    4 am   BACKBONE|DICT|INTERRES
     7    4    5 1    
     8    4   75 1    
     9    5    6 1    
    10    5   35 1    
    11    5   76 1    
    12    6    7 1    
    13    6   77 1    
    14    6   78 1    
    15    7    8 1    
    16    8    9 1    
    17    8   79 1    
    18    8   80 1    
    19    9   10 ar   
    20    9   14 ar   
    21   10   11 ar   
    22   10   81 1    
    23   11   12 ar   
    24   11   71 1    
    25   12   13 ar   
    26   12   82 1    
    27   13   14 ar   
    28   13   15 1    
    29   14   83 1    
    30   15   16 1    
    31   15   84 1    
    32   15   85 1    
    33   16   17 1    
    34   17   18 1    
    35   17   86 1    
    36   17   87 1    
    37   18   19 1    
    38   18   37 1    
    39   18   88 1    
    40   19   20 am   BACKBONE|DICT|INTERRES
    41   19   89 1    
    42   20   21 2    
    43   20   22 1    
    44   22   23 1    
    45   22   24 1    
    46   22   90 1    
    47   23   91 1    
    48   23   92 1    
    49   23   93 1    
    50   24   25 am   BACKBONE|DICT|INTERRES
    51   24   94 1    
    52   25   26 2    
    53   25   27 1    
    54   27   28 1    
    55   27   29 1    
    56   27   95 1    
    57   28   96 1    
    58   28   97 1    
    59   28   98 1    
    60   29   30 am   BACKBONE|DICT|INTERRES
    61   29   99 1    
    62   30   31 2    
    63   30   32 1    
    64   32   33 1    
    65   32   34 1    
    66   32  100 1    
    67   33  101 1    
    68   33  102 1    
    69   33  103 1    
    70   34   35 am   BACKBONE|DICT|INTERRES
    71   34  104 1    
    72   35   36 2    
    73   37   38 2    
    74   37   39 am   BACKBONE|DICT|INTERRES
    75   39   40 1    
    76   39  105 1    
    77   40   41 1    
    78   40   42 1    
    79   40  106 1    
    80   41  107 1    
    81   41  108 1    
    82   41  109 1    
    83   42   43 2    
    84   42   44 am   BACKBONE|DICT|INTERRES
    85   44   45 1    
    86   44  110 1    
    87   45   46 1    
    88   45   47 1    
    89   45  111 1    
    90   46  112 1    
    91   46  113 1    
    92   46  114 1    
    93   47   48 2    
    94   47   49 am   BACKBONE|DICT|INTERRES
    95   49   50 1    
    96   49  115 1    
    97   50   51 1    
    98   50   52 1    
    99   50  116 1    
   100   51  117 1    
   101   51  118 1    
   102   51  119 1    
   103   52   53 2    
   104   52   54 am   BACKBONE|DICT|INTERRES
   105   54   55 1    
   106   54  120 1    
   107   55   56 1    
   108   55   57 1    
   109   55  121 1    
   110   56  122 1    
   111   56  123 1    
   112   56  124 1    
   113   57   58 2    
   114   57   59 am   BACKBONE|DICT|INTERRES
   115   59   60 1    
   116   59  125 1    
   117   60   61 1    
   118   60   62 1    
   119   60  126 1    
   120   61  127 1    
   121   61  128 1    
   122   61  129 1    
   123   62   63 2    
   124   62   64 am   BACKBONE|DICT|INTERRES
   125   64   65 1    
   126   64  130 1    
   127   65   66 1    
   128   65   69 1    
   129   65  131 1    
   130   66   67 am   BACKBONE|DICT|INTERRES
   131   66   68 2    
   132   67  132 1    
   133   67  133 1    
   134   69   70 1    
   135   69  134 1    
   136   69  135 1    
   137   70   71 1    
   138   71  136 1    
   139   71  137 1    
@<TRIPOS>SUBSTRUCTURE
     1 UNK         1 GROUP             0       ****    0 ROOT    
