@<TRIPOS>MOLECULE
3R137
137   139    1
SMALL
USER_CHARGES


@<TRIPOS>ATOM
      1 CA         26.5332   -6.6338    0.2008 C.3       0 UNK        -0.2020 
      2 C          26.7642   -5.2631   -0.4170 C.2       0 UNK         0.4855 
      3 O          26.8973   -4.2773    0.3095 O.2       0 UNK        -0.5197 
      4 N          26.8176   -5.1897   -1.7526 N.am      1 UNK        -0.4892 
      5 CA         26.9963   -3.9536   -2.5170 C.3       1 UNK         0.0835 
      6 C6         27.5481   -4.2305   -3.9424 C.3       12 UNK        -0.0855 
      7 S7         29.2044   -5.0017   -3.9757 S.3       12 UNK        -0.2931 
      8 C8         30.1157   -3.9279   -5.1516 C.3       12 UNK         0.0378 
      9 C9         30.8991   -2.7949   -4.4883 C.ar      12 UNK        -0.0802 
     10 C10        32.1403   -2.4090   -5.0086 C.ar      12 UNK        -0.0944 
     11 C11        32.8795   -1.3826   -4.4083 C.ar      12 UNK        -0.0787 
     12 C12        32.3624   -0.7291   -3.2855 C.ar      12 UNK        -0.0862 
     13 C13        31.1161   -1.0889   -2.7684 C.ar      12 UNK        -0.0733 
     14 C14        30.3968   -2.1199   -3.3726 C.ar      12 UNK        -0.0832 
     15 C15        30.5489   -0.3760   -1.5512 C.3       12 UNK         0.0240 
     16 S16        29.5456    1.0656   -2.0250 S.3       12 UNK        -0.2522 
     17 C17        28.0209    0.3006   -2.6811 C.3       12 UNK        -0.0967 
     18 CA         27.9087    0.3924   -4.2268 C.3       5 UNK         0.0660 
     19 N          26.8732   -0.4905   -4.7783 N.am      5 UNK        -0.4015 
     20 C          26.8037   -0.8470   -6.0727 C.2       4 UNK         0.4946 
     21 O          27.6952   -0.6091   -6.8867 O.2       4 UNK        -0.5353 
     22 CA         25.5152   -1.5278   -6.5769 C.3       4 UNK         0.0277 
     23 CB         25.7011   -3.0283   -6.8511 C.3       4 UNK        -0.1981 
     24 N          24.3672   -1.3245   -5.6927 N.am      4 UNK        -0.4209 
     25 C          23.6629   -0.1849   -5.6425 C.2       3 UNK         0.4942 
     26 O          23.8862    0.7802   -6.3718 O.2       3 UNK        -0.5208 
     27 CA         22.5700   -0.0734   -4.5631 C.3       3 UNK         0.0250 
     28 CB         21.2194   -0.5555   -5.1144 C.3       3 UNK        -0.1990 
     29 N          22.8823   -0.7995   -3.3269 N.am      3 UNK        -0.4232 
     30 C          23.9675   -0.5889   -2.5689 C.2       2 UNK         0.4993 
     31 O          24.8133    0.2681   -2.8304 O.2       2 UNK        -0.5286 
     32 CA         24.1972   -1.5210   -1.3621 C.3       2 UNK         0.0209 
     33 CB         22.9794   -2.4047   -1.0067 C.3       2 UNK        -0.1931 
     34 N          25.3952   -2.3572   -1.5373 N.am      2 UNK        -0.4546 
     35 C          25.6635   -3.1740   -2.5679 C.2       1 UNK         0.5154 
     36 O          24.9029   -3.3308   -3.5252 O.2       1 UNK        -0.5181 
     37 C          27.6465    1.8371   -4.6922 C.2       5 UNK         0.5014 
     38 O          28.5641    2.4890   -5.1894 O.2       5 UNK        -0.5248 
     39 N          26.3866    2.2893   -4.5774 N.am      6 UNK        -0.4434 
     40 CA         25.9279    3.6029   -5.0436 C.3       6 UNK         0.0363 
     41 CB         24.4697    3.8274   -4.6130 C.3       6 UNK        -0.1936 
     42 C          26.0923    3.8001   -6.5628 C.2       6 UNK         0.5081 
     43 O          26.4904    4.8829   -6.9923 O.2       6 UNK        -0.5248 
     44 N          25.8262    2.7433   -7.3433 N.am      7 UNK        -0.4718 
     45 CA         26.0598    2.6950   -8.7911 C.3       7 UNK         0.0273 
     46 CB         25.2147    1.5634   -9.3978 C.3       7 UNK        -0.1935 
     47 C          27.5423    2.5185   -9.1809 C.2       7 UNK         0.5018 
     48 O          27.8614    2.6717  -10.3606 O.2       7 UNK        -0.5186 
     49 N          28.4069    2.1934   -8.2067 N.am      8 UNK        -0.4240 
     50 CA         29.8461    1.9339   -8.3272 C.3       8 UNK         0.0235 
     51 CB         30.6033    3.2283   -8.6942 C.3       8 UNK        -0.2000 
     52 C          30.1703    0.7550   -9.2655 C.2       8 UNK         0.4941 
     53 O          31.0581    0.8674  -10.1150 O.2       8 UNK        -0.5273 
     54 N          29.4445   -0.3602   -9.0979 N.am      9 UNK        -0.4262 
     55 CA         29.6149   -1.5957   -9.8653 C.3       9 UNK         0.0264 
     56 CB         28.4860   -2.5757   -9.5126 C.3       9 UNK        -0.1955 
     57 C          30.9928   -2.2200   -9.5931 C.2       9 UNK         0.5031 
     58 O          31.2289   -2.7070   -8.4854 O.2       9 UNK        -0.5390 
     59 N          31.8787   -2.1464  -10.5977 N.am      10 UNK        -0.4204 
     60 CA         33.3036   -2.5014  -10.5417 C.3       10 UNK         0.0237 
     61 CB         33.4869   -4.0258  -10.3750 C.3       10 UNK        -0.1985 
     62 C          34.0773   -1.6799   -9.4875 C.2       10 UNK         0.4970 
     63 O          34.9739   -2.2127   -8.8304 O.2       10 UNK        -0.4914 
     64 N          33.7067   -0.4020   -9.3438 N.am      11 UNK        -0.4285 
     65 CA         34.2443    0.5359   -8.3549 C.3       11 UNK         0.1007 
     66 C          34.5264    1.9305   -8.9797 C.2       11 UNK         0.5703 
     67 N          34.9007    2.9117   -8.1702 N.am      11 UNK        -0.7361 
     68 O          34.4328    2.1334  -10.1894 O.2       11 UNK        -0.4986 
     69 C69        33.3328    0.5846   -7.0938 C.3       12 UNK        -0.0947 
     70 S70        34.2926    0.7256   -5.5530 S.3       12 UNK        -0.2240 
     71 C71        34.2484   -0.9932   -4.9521 C.3       12 UNK         0.0194 
     72 H72        27.3627   -6.8931    0.8581 H         1 UNK         0.0906 
     73 H73        25.6181   -6.6288    0.7924 H         1 UNK         0.0906 
     74 H74        26.4440   -7.4130   -0.5560 H         1 UNK         0.0906 
     75 H75        26.6978   -6.0282   -2.3036 H         1 UNK         0.3140 
     76 H76        27.7183   -3.3310   -1.9876 H         1 UNK         0.1085 
     77 H77        27.5877   -3.3006   -4.5098 H         1 UNK         0.0836 
     78 H78        26.8737   -4.8932   -4.4872 H         1 UNK         0.0836 
     79 H79        29.4357   -3.5085   -5.8947 H         1 UNK         0.0731 
     80 H80        30.8053   -4.5658   -5.7068 H         1 UNK         0.0731 
     81 H81        32.5339   -2.9121   -5.8822 H         1 UNK         0.1312 
     82 H82        32.9291    0.0658   -2.8199 H         1 UNK         0.1406 
     83 H83        29.4410   -2.3976   -2.9663 H         1 UNK         0.1631 
     84 H84        31.3644   -0.0374   -0.9102 H         1 UNK         0.0717 
     85 H85        29.9536   -1.0602   -0.9444 H         1 UNK         0.0717 
     86 H86        27.9721   -0.7378   -2.3573 H         1 UNK         0.0934 
     87 H87        27.1789    0.7919   -2.1927 H         1 UNK         0.0934 
     88 H88        28.8657    0.0777   -4.6503 H         1 UNK         0.0739 
     89 H89        26.0628   -0.6391   -4.1890 H         1 UNK         0.3093 
     90 H90        25.2896   -1.0653   -7.5384 H         1 UNK         0.0818 
     91 H91        26.6619   -3.2396   -7.3159 H         1 UNK         0.0819 
     92 H92        25.6400   -3.6254   -5.9462 H         1 UNK         0.0819 
     93 H93        24.9301   -3.3944   -7.5290 H         1 UNK         0.0819 
     94 H94        24.1674   -2.0637   -5.0258 H         1 UNK         0.3041 
     95 H95        22.4764    0.9836   -4.3054 H         1 UNK         0.0784 
     96 H96        20.9540   -0.0139   -6.0237 H         1 UNK         0.0793 
     97 H97        21.2392   -1.6177   -5.3617 H         1 UNK         0.0793 
     98 H98        20.4155   -0.3916   -4.3964 H         1 UNK         0.0793 
     99 H99        22.2524   -1.5434   -3.0629 H         1 UNK         0.3024 
    100 H100       24.3907   -0.8648   -0.5119 H         1 UNK         0.1171 
    101 H101       23.1674   -2.9729   -0.0954 H         1 UNK         0.0786 
    102 H102       22.0899   -1.8001   -0.8236 H         1 UNK         0.0786 
    103 H103       22.7421   -3.1228   -1.7926 H         1 UNK         0.0786 
    104 H104       26.0558   -2.3396   -0.7700 H         1 UNK         0.2977 
    105 H105       25.6979    1.6944   -4.1291 H         1 UNK         0.3127 
    106 H106       26.5455    4.3554   -4.5486 H         1 UNK         0.0770 
    107 H107       23.7937    3.1084   -5.0755 H         1 UNK         0.0814 
    108 H108       24.1295    4.8230   -4.9007 H         1 UNK         0.0814 
    109 H109       24.3570    3.7466   -3.5317 H         1 UNK         0.0814 
    110 H110       25.3962    1.9251   -6.9206 H         1 UNK         0.2983 
    111 H111       25.7221    3.6398   -9.2228 H         1 UNK         0.0947 
    112 H112       25.5691    0.5844   -9.0777 H         1 UNK         0.0806 
    113 H113       25.2632    1.5829  -10.4873 H         1 UNK         0.0806 
    114 H114       24.1646    1.6522   -9.1184 H         1 UNK         0.0806 
    115 H115       28.0403    2.1061   -7.2668 H         1 UNK         0.3000 
    116 H116       30.1786    1.6274   -7.3343 H         1 UNK         0.0850 
    117 H117       30.3877    4.0263   -7.9838 H         1 UNK         0.0810 
    118 H118       30.3385    3.5838   -9.6904 H         1 UNK         0.0810 
    119 H119       31.6818    3.0707   -8.6855 H         1 UNK         0.0810 
    120 H120       28.7745   -0.3946   -8.3294 H         1 UNK         0.3040 
    121 H121       29.5295   -1.3468  -10.9250 H         1 UNK         0.0766 
    122 H122       28.5398   -3.4721  -10.1314 H         1 UNK         0.0812 
    123 H123       27.5034   -2.1287   -9.6652 H         1 UNK         0.0812 
    124 H124       28.5554   -2.8939   -8.4725 H         1 UNK         0.0812 
    125 H125       31.5797   -1.6948  -11.4518 H         1 UNK         0.3205 
    126 H126       33.7269   -2.2236  -11.5081 H         1 UNK         0.0754 
    127 H127       34.5368   -4.3062  -10.4684 H         1 UNK         0.0769 
    128 H128       32.9367   -4.5773  -11.1373 H         1 UNK         0.0769 
    129 H129       33.1447   -4.3710   -9.3988 H         1 UNK         0.0769 
    130 H130       32.9674   -0.0226   -9.9265 H         1 UNK         0.2981 
    131 H131       35.2312    0.1700   -8.0661 H         1 UNK         0.0541 
    132 H132       35.0987    3.8216   -8.5554 H         1 UNK         0.3459 
    133 H133       34.9840    2.7526   -7.1775 H         1 UNK         0.3459 
    134 H134       32.6278    1.4149   -7.1406 H         1 UNK         0.0612 
    135 H135       32.7112   -0.3102   -7.0296 H         1 UNK         0.0612 
    136 H136       34.9881   -1.1056   -4.1585 H         1 UNK         0.0624 
    137 H137       34.5570   -1.6615   -5.7581 H         1 UNK         0.0624 
@<TRIPOS>BOND
     1    1    2 1    
     2    1   72 1    
     3    1   73 1    
     4    1   74 1    
     5    2    3 2    
     6    2    4 am   BACKBONE|DICT|INTERRES
     7    4    5 1    
     8    4   75 1    
     9    5    6 1    
    10    5   35 1    
    11    5   76 1    
    12    6    7 1    
    13    6   77 1    
    14    6   78 1    
    15    7    8 1    
    16    8    9 1    
    17    8   79 1    
    18    8   80 1    
    19    9   10 ar   
    20    9   14 ar   
    21   10   11 ar   
    22   10   81 1    
    23   11   12 ar   
    24   11   71 1    
    25   12   13 ar   
    26   12   82 1    
    27   13   14 ar   
    28   13   15 1    
    29   14   83 1    
    30   15   16 1    
    31   15   84 1    
    32   15   85 1    
    33   16   17 1    
    34   17   18 1    
    35   17   86 1    
    36   17   87 1    
    37   18   19 1    
    38   18   37 1    
    39   18   88 1    
    40   19   20 am   BACKBONE|DICT|INTERRES
    41   19   89 1    
    42   20   21 2    
    43   20   22 1    
    44   22   23 1    
    45   22   24 1    
    46   22   90 1    
    47   23   91 1    
    48   23   92 1    
    49   23   93 1    
    50   24   25 am   BACKBONE|DICT|INTERRES
    51   24   94 1    
    52   25   26 2    
    53   25   27 1    
    54   27   28 1    
    55   27   29 1    
    56   27   95 1    
    57   28   96 1    
    58   28   97 1    
    59   28   98 1    
    60   29   30 am   BACKBONE|DICT|INTERRES
    61   29   99 1    
    62   30   31 2    
    63   30   32 1    
    64   32   33 1    
    65   32   34 1    
    66   32  100 1    
    67   33  101 1    
    68   33  102 1    
    69   33  103 1    
    70   34   35 am   BACKBONE|DICT|INTERRES
    71   34  104 1    
    72   35   36 2    
    73   37   38 2    
    74   37   39 am   BACKBONE|DICT|INTERRES
    75   39   40 1    
    76   39  105 1    
    77   40   41 1    
    78   40   42 1    
    79   40  106 1    
    80   41  107 1    
    81   41  108 1    
    82   41  109 1    
    83   42   43 2    
    84   42   44 am   BACKBONE|DICT|INTERRES
    85   44   45 1    
    86   44  110 1    
    87   45   46 1    
    88   45   47 1    
    89   45  111 1    
    90   46  112 1    
    91   46  113 1    
    92   46  114 1    
    93   47   48 2    
    94   47   49 am   BACKBONE|DICT|INTERRES
    95   49   50 1    
    96   49  115 1    
    97   50   51 1    
    98   50   52 1    
    99   50  116 1    
   100   51  117 1    
   101   51  118 1    
   102   51  119 1    
   103   52   53 2    
   104   52   54 am   BACKBONE|DICT|INTERRES
   105   54   55 1    
   106   54  120 1    
   107   55   56 1    
   108   55   57 1    
   109   55  121 1    
   110   56  122 1    
   111   56  123 1    
   112   56  124 1    
   113   57   58 2    
   114   57   59 am   BACKBONE|DICT|INTERRES
   115   59   60 1    
   116   59  125 1    
   117   60   61 1    
   118   60   62 1    
   119   60  126 1    
   120   61  127 1    
   121   61  128 1    
   122   61  129 1    
   123   62   63 2    
   124   62   64 am   BACKBONE|DICT|INTERRES
   125   64   65 1    
   126   64  130 1    
   127   65   66 1    
   128   65   69 1    
   129   65  131 1    
   130   66   67 am   BACKBONE|DICT|INTERRES
   131   66   68 2    
   132   67  132 1    
   133   67  133 1    
   134   69   70 1    
   135   69  134 1    
   136   69  135 1    
   137   70   71 1    
   138   71  136 1    
   139   71  137 1    
@<TRIPOS>SUBSTRUCTURE
     1 UNK         1 GROUP             0       ****    0 ROOT    
