@<TRIPOS>MOLECULE
3R137
137   139    1
SMALL
USER_CHARGES


@<TRIPOS>ATOM
      1 CA         24.8036   -6.3975   -4.0682 C.3       0 UNK        -0.2020 
      2 C          25.2197   -5.5129   -2.9027 C.2       0 UNK         0.4855 
      3 O          24.3800   -4.8153   -2.3319 O.2       0 UNK        -0.5197 
      4 N          26.5106   -5.5356   -2.5438 N.am      1 UNK        -0.4892 
      5 CA         27.1048   -4.7182   -1.4810 C.3       1 UNK         0.0835 
      6 C6         28.5694   -5.1417   -1.2081 C.3       12 UNK        -0.0855 
      7 S7         29.2203   -4.4537    0.3546 S.3       12 UNK        -0.2931 
      8 C8         30.9371   -4.0164   -0.0943 C.3       12 UNK         0.0378 
      9 C9         31.0265   -3.0374   -1.2605 C.ar      12 UNK        -0.0802 
     10 C10        31.8235   -3.3378   -2.3693 C.ar      12 UNK        -0.0944 
     11 C11        31.8925   -2.4659   -3.4609 C.ar      12 UNK        -0.0787 
     12 C12        31.1510   -1.2787   -3.4299 C.ar      12 UNK        -0.0862 
     13 C13        30.3484   -0.9622   -2.3262 C.ar      12 UNK        -0.0733 
     14 C14        30.3063   -1.8405   -1.2406 C.ar      12 UNK        -0.0832 
     15 C15        29.4406    0.2629   -2.3086 C.3       12 UNK         0.0240 
     16 S16        30.0516    1.6884   -3.2634 S.3       12 UNK        -0.2522 
     17 C17        28.4733    2.4872   -3.7055 C.3       12 UNK        -0.0967 
     18 CA         28.0057    2.0724   -5.1214 C.3       5 UNK         0.0660 
     19 N          27.6802    0.6469   -5.2270 N.am      5 UNK        -0.4015 
     20 C          27.6637   -0.0393   -6.3780 C.2       4 UNK         0.4946 
     21 O          27.9549    0.4510   -7.4680 O.2       4 UNK        -0.5353 
     22 CA         27.1979   -1.5038   -6.3148 C.3       4 UNK         0.0277 
     23 CB         28.3773   -2.4374   -6.0045 C.3       4 UNK        -0.1981 
     24 N          26.1298   -1.7116   -5.3338 N.am      4 UNK        -0.4209 
     25 C          24.8928   -1.2052   -5.4630 C.2       3 UNK         0.4942 
     26 O          24.5261   -0.5621   -6.4449 O.2       3 UNK        -0.5208 
     27 CA         23.9051   -1.3928   -4.2971 C.3       3 UNK         0.0250 
     28 CB         22.9824   -2.5911   -4.5637 C.3       3 UNK        -0.1990 
     29 N          24.5477   -1.5434   -2.9902 N.am      3 UNK        -0.4232 
     30 C          25.3445   -0.6276   -2.4178 C.2       2 UNK         0.4993 
     31 O          25.6064    0.4648   -2.9269 O.2       2 UNK        -0.5286 
     32 CA         26.0156   -1.0210   -1.0881 C.3       2 UNK         0.0209 
     33 CB         25.1550   -0.5566    0.0970 C.3       2 UNK        -0.1931 
     34 N          26.3051   -2.4551   -0.9451 N.am      2 UNK        -0.4546 
     35 C          26.9749   -3.2184   -1.8233 C.2       1 UNK         0.5154 
     36 O          27.4293   -2.7988   -2.8897 O.2       1 UNK        -0.5181 
     37 C          26.8255    2.9381   -5.5949 C.2       5 UNK         0.5014 
     38 O          27.0621    3.9610   -6.2372 O.2       5 UNK        -0.5248 
     39 N          25.5839    2.5026   -5.3248 N.am      6 UNK        -0.4434 
     40 CA         24.3623    3.1327   -5.8410 C.3       6 UNK         0.0363 
     41 CB         23.1269    2.5069   -5.1755 C.3       6 UNK        -0.1936 
     42 C          24.2584    3.0511   -7.3765 C.2       6 UNK         0.5081 
     43 O          23.8661    4.0298   -8.0116 O.2       6 UNK        -0.5248 
     44 N          24.6528    1.9033   -7.9458 N.am      7 UNK        -0.4718 
     45 CA         24.7784    1.6753   -9.3894 C.3       7 UNK         0.0273 
     46 CB         24.8223    0.1599   -9.6473 C.3       7 UNK        -0.1935 
     47 C          26.0100    2.3550  -10.0211 C.2       7 UNK         0.5018 
     48 O          26.0819    2.4282  -11.2486 O.2       7 UNK        -0.5186 
     49 N          26.9499    2.8192   -9.1840 N.am      8 UNK        -0.4240 
     50 CA         28.2397    3.4310   -9.5199 C.3       8 UNK         0.0235 
     51 CB         28.0393    4.7896  -10.2252 C.3       8 UNK        -0.2000 
     52 C          29.1733    2.4755  -10.2891 C.2       8 UNK         0.4941 
     53 O          29.8258    2.8902  -11.2500 O.2       8 UNK        -0.5273 
     54 N          29.2236    1.2096   -9.8533 N.am      9 UNK        -0.4262 
     55 CA         30.1225    0.1863  -10.3842 C.3       9 UNK         0.0264 
     56 CB         29.6294   -1.2006   -9.9410 C.3       9 UNK        -0.1955 
     57 C          31.5589    0.4241   -9.8952 C.2       9 UNK         0.5031 
     58 O          31.7638    0.7361   -8.7194 O.2       9 UNK        -0.5390 
     59 N          32.5370    0.2257  -10.7859 N.am      10 UNK        -0.4204 
     60 CA         33.9680    0.3967  -10.5147 C.3       10 UNK         0.0237 
     61 CB         34.6802    0.7765  -11.8276 C.3       10 UNK        -0.1985 
     62 C          34.5895   -0.8428   -9.8375 C.2       10 UNK         0.4970 
     63 O          35.6374   -1.3197  -10.2775 O.2       10 UNK        -0.4914 
     64 N          33.9313   -1.3542   -8.7900 N.am      11 UNK        -0.4285 
     65 CA         34.3803   -2.5145   -8.0042 C.3       11 UNK         0.1007 
     66 C          35.4936   -2.2086   -6.9597 C.2       11 UNK         0.5703 
     67 N          35.8484   -0.9534   -6.7105 N.am      11 UNK        -0.7361 
     68 O          36.0559   -3.1310   -6.3744 O.2       11 UNK        -0.4986 
     69 C69        33.1877   -3.3012   -7.3983 C.3       12 UNK        -0.0947 
     70 S70        32.1197   -2.3375   -6.2730 S.3       12 UNK        -0.2240 
     71 C71        32.7895   -2.8249   -4.6451 C.3       12 UNK         0.0194 
     72 H72        24.5028   -5.7856   -4.9178 H         1 UNK         0.0906 
     73 H73        25.6123   -7.0528   -4.3914 H         1 UNK         0.0906 
     74 H74        23.9579   -7.0220   -3.7815 H         1 UNK         0.0906 
     75 H75        27.1580   -6.1044   -3.0706 H         1 UNK         0.3140 
     76 H76        26.5256   -4.9179   -0.5766 H         1 UNK         0.1085 
     77 H77        29.2089   -4.8696   -2.0497 H         1 UNK         0.0836 
     78 H78        28.6326   -6.2280   -1.1268 H         1 UNK         0.0836 
     79 H79        31.4806   -4.9358   -0.3178 H         1 UNK         0.0731 
     80 H80        31.4265   -3.5738    0.7743 H         1 UNK         0.0731 
     81 H81        32.3898   -4.2592   -2.3856 H         1 UNK         0.1312 
     82 H82        31.1841   -0.6110   -4.2787 H         1 UNK         0.1406 
     83 H83        29.6766   -1.6153   -0.3905 H         1 UNK         0.1631 
     84 H84        29.2597    0.5919   -1.2842 H         1 UNK         0.0717 
     85 H85        28.4809   -0.0542   -2.7121 H         1 UNK         0.0717 
     86 H86        27.7122    2.2684   -2.9538 H         1 UNK         0.0934 
     87 H87        28.6371    3.5660   -3.6612 H         1 UNK         0.0934 
     88 H88        28.8316    2.2740   -5.8083 H         1 UNK         0.0739 
     89 H89        27.3642    0.1902   -4.3831 H         1 UNK         0.3093 
     90 H90        26.8058   -1.7694   -7.2989 H         1 UNK         0.0818 
     91 H91        29.1404   -2.3689   -6.7792 H         1 UNK         0.0819 
     92 H92        28.0603   -3.4790   -5.9539 H         1 UNK         0.0819 
     93 H93        28.8558   -2.1879   -5.0567 H         1 UNK         0.0819 
     94 H94        26.3866   -2.1989   -4.4794 H         1 UNK         0.3041 
     95 H95        23.2855   -0.4963   -4.2455 H         1 UNK         0.0784 
     96 H96        22.4323   -2.4583   -5.4964 H         1 UNK         0.0793 
     97 H97        23.5445   -3.5206   -4.6484 H         1 UNK         0.0793 
     98 H98        22.2469   -2.7141   -3.7685 H         1 UNK         0.0793 
     99 H99        24.4199   -2.4315   -2.5206 H         1 UNK         0.3024 
    100 H100       26.9667   -0.4923   -1.0353 H         1 UNK         0.1171 
    101 H101       25.6632   -0.7225    1.0472 H         1 UNK         0.0786 
    102 H102       24.9413    0.5114    0.0297 H         1 UNK         0.0786 
    103 H103       24.1980   -1.0789    0.1309 H         1 UNK         0.0786 
    104 H104       25.9501   -2.8949   -0.1079 H         1 UNK         0.2977 
    105 H105       25.4712    1.6793   -4.7445 H         1 UNK         0.3127 
    106 H106       24.3962    4.1891   -5.5655 H         1 UNK         0.0770 
    107 H107       22.9817    1.4725   -5.4848 H         1 UNK         0.0814 
    108 H108       22.2236    3.0532   -5.4500 H         1 UNK         0.0814 
    109 H109       23.2023    2.5287   -4.0881 H         1 UNK         0.0814 
    110 H110       24.8654    1.1102   -7.3452 H         1 UNK         0.2983 
    111 H111       23.8931    2.0838   -9.8814 H         1 UNK         0.0947 
    112 H112       24.8728   -0.0562  -10.7153 H         1 UNK         0.0806 
    113 H113       23.9323   -0.3353   -9.2583 H         1 UNK         0.0806 
    114 H114       25.6931   -0.3010   -9.1791 H         1 UNK         0.0806 
    115 H115       26.7827    2.6904   -8.1951 H         1 UNK         0.3000 
    116 H116       28.7344    3.6276   -8.5675 H         1 UNK         0.0850 
    117 H117       28.9915    5.3046  -10.3578 H         1 UNK         0.0810 
    118 H118       27.3950    5.4467   -9.6409 H         1 UNK         0.0810 
    119 H119       27.5934    4.6726  -11.2133 H         1 UNK         0.0810 
    120 H120       28.7025    0.9592   -9.0122 H         1 UNK         0.3040 
    121 H121       30.0962    0.2341  -11.4750 H         1 UNK         0.0766 
    122 H122       28.6027   -1.3793  -10.2608 H         1 UNK         0.0812 
    123 H123       29.6655   -1.3084   -8.8566 H         1 UNK         0.0812 
    124 H124       30.2476   -1.9916  -10.3673 H         1 UNK         0.0812 
    125 H125       32.2908   -0.0749  -11.7186 H         1 UNK         0.3205 
    126 H126       34.0975    1.2306   -9.8213 H         1 UNK         0.0754 
    127 H127       35.7384    0.9788  -11.6561 H         1 UNK         0.0769 
    128 H128       34.2499    1.6774  -12.2657 H         1 UNK         0.0769 
    129 H129       34.6156   -0.0214  -12.5685 H         1 UNK         0.0769 
    130 H130       33.0949   -0.8823   -8.4642 H         1 UNK         0.2981 
    131 H131       34.8542   -3.2032   -8.7064 H         1 UNK         0.0541 
    132 H132       36.5756   -0.7704   -6.0374 H         1 UNK         0.3459 
    133 H133       35.3897   -0.1896   -7.1794 H         1 UNK         0.3459 
    134 H134       33.5381   -4.2034   -6.8945 H         1 UNK         0.0612 
    135 H135       32.5522   -3.6589   -8.2097 H         1 UNK         0.0612 
    136 H136       32.9671   -3.9013   -4.6535 H         1 UNK         0.0624 
    137 H137       33.7601   -2.3489   -4.5029 H         1 UNK         0.0624 
@<TRIPOS>BOND
     1    1    2 1    
     2    1   72 1    
     3    1   73 1    
     4    1   74 1    
     5    2    3 2    
     6    2    4 am   BACKBONE|DICT|INTERRES
     7    4    5 1    
     8    4   75 1    
     9    5    6 1    
    10    5   35 1    
    11    5   76 1    
    12    6    7 1    
    13    6   77 1    
    14    6   78 1    
    15    7    8 1    
    16    8    9 1    
    17    8   79 1    
    18    8   80 1    
    19    9   10 ar   
    20    9   14 ar   
    21   10   11 ar   
    22   10   81 1    
    23   11   12 ar   
    24   11   71 1    
    25   12   13 ar   
    26   12   82 1    
    27   13   14 ar   
    28   13   15 1    
    29   14   83 1    
    30   15   16 1    
    31   15   84 1    
    32   15   85 1    
    33   16   17 1    
    34   17   18 1    
    35   17   86 1    
    36   17   87 1    
    37   18   19 1    
    38   18   37 1    
    39   18   88 1    
    40   19   20 am   BACKBONE|DICT|INTERRES
    41   19   89 1    
    42   20   21 2    
    43   20   22 1    
    44   22   23 1    
    45   22   24 1    
    46   22   90 1    
    47   23   91 1    
    48   23   92 1    
    49   23   93 1    
    50   24   25 am   BACKBONE|DICT|INTERRES
    51   24   94 1    
    52   25   26 2    
    53   25   27 1    
    54   27   28 1    
    55   27   29 1    
    56   27   95 1    
    57   28   96 1    
    58   28   97 1    
    59   28   98 1    
    60   29   30 am   BACKBONE|DICT|INTERRES
    61   29   99 1    
    62   30   31 2    
    63   30   32 1    
    64   32   33 1    
    65   32   34 1    
    66   32  100 1    
    67   33  101 1    
    68   33  102 1    
    69   33  103 1    
    70   34   35 am   BACKBONE|DICT|INTERRES
    71   34  104 1    
    72   35   36 2    
    73   37   38 2    
    74   37   39 am   BACKBONE|DICT|INTERRES
    75   39   40 1    
    76   39  105 1    
    77   40   41 1    
    78   40   42 1    
    79   40  106 1    
    80   41  107 1    
    81   41  108 1    
    82   41  109 1    
    83   42   43 2    
    84   42   44 am   BACKBONE|DICT|INTERRES
    85   44   45 1    
    86   44  110 1    
    87   45   46 1    
    88   45   47 1    
    89   45  111 1    
    90   46  112 1    
    91   46  113 1    
    92   46  114 1    
    93   47   48 2    
    94   47   49 am   BACKBONE|DICT|INTERRES
    95   49   50 1    
    96   49  115 1    
    97   50   51 1    
    98   50   52 1    
    99   50  116 1    
   100   51  117 1    
   101   51  118 1    
   102   51  119 1    
   103   52   53 2    
   104   52   54 am   BACKBONE|DICT|INTERRES
   105   54   55 1    
   106   54  120 1    
   107   55   56 1    
   108   55   57 1    
   109   55  121 1    
   110   56  122 1    
   111   56  123 1    
   112   56  124 1    
   113   57   58 2    
   114   57   59 am   BACKBONE|DICT|INTERRES
   115   59   60 1    
   116   59  125 1    
   117   60   61 1    
   118   60   62 1    
   119   60  126 1    
   120   61  127 1    
   121   61  128 1    
   122   61  129 1    
   123   62   63 2    
   124   62   64 am   BACKBONE|DICT|INTERRES
   125   64   65 1    
   126   64  130 1    
   127   65   66 1    
   128   65   69 1    
   129   65  131 1    
   130   66   67 am   BACKBONE|DICT|INTERRES
   131   66   68 2    
   132   67  132 1    
   133   67  133 1    
   134   69   70 1    
   135   69  134 1    
   136   69  135 1    
   137   70   71 1    
   138   71  136 1    
   139   71  137 1    
@<TRIPOS>SUBSTRUCTURE
     1 UNK         1 GROUP             0       ****    0 ROOT    
