@<TRIPOS>MOLECULE
3R137
137   139    1
SMALL
USER_CHARGES


@<TRIPOS>ATOM
      1 CA         23.7815   -2.3081   -8.5754 C.3       0 UNK        -0.2020 
      2 C          24.7351   -3.2987   -7.9236 C.2       0 UNK         0.4855 
      3 O          24.7529   -4.4696   -8.3053 O.2       0 UNK        -0.5197 
      4 N          25.5226   -2.8392   -6.9446 N.am      1 UNK        -0.4892 
      5 CA         26.3928   -3.6717   -6.1104 C.3       1 UNK         0.0835 
      6 C6         27.6553   -2.8784   -5.6767 C.3       12 UNK        -0.0855 
      7 S7         29.1123   -3.9576   -5.4625 S.3       12 UNK        -0.2931 
      8 C8         29.5604   -3.6824   -3.7143 C.3       12 UNK         0.0378 
      9 C9         29.9463   -2.2399   -3.4087 C.ar      12 UNK        -0.0802 
     10 C10        30.8816   -1.5663   -4.1997 C.ar      12 UNK        -0.0944 
     11 C11        31.2381   -0.2458   -3.9147 C.ar      12 UNK        -0.0787 
     12 C12        30.6683    0.3991   -2.8135 C.ar      12 UNK        -0.0862 
     13 C13        29.7481   -0.2709   -2.0004 C.ar      12 UNK        -0.0733 
     14 C14        29.3877   -1.5865   -2.3065 C.ar      12 UNK        -0.0832 
     15 C15        29.1539    0.4158   -0.7791 C.3       12 UNK         0.0240 
     16 S16        27.3729    0.7351   -0.9715 S.3       12 UNK        -0.2522 
     17 C17        27.3611    1.8958   -2.3784 C.3       12 UNK        -0.0967 
     18 CA         26.8988    1.2284   -3.6977 C.3       5 UNK         0.0660 
     19 N          25.5671    0.6220   -3.5567 N.am      5 UNK        -0.4015 
     20 C          24.8973   -0.0721   -4.4855 C.2       4 UNK         0.4946 
     21 O          25.3262   -0.3095   -5.6185 O.2       4 UNK        -0.5353 
     22 CA         23.5082   -0.5688   -4.0568 C.3       4 UNK         0.0277 
     23 CB         22.6443   -1.0365   -5.2417 C.3       4 UNK        -0.1981 
     24 N          23.6317   -1.6515   -3.0797 N.am      4 UNK        -0.4209 
     25 C          23.7438   -1.4714   -1.7551 C.2       3 UNK         0.4942 
     26 O          23.7713   -0.3562   -1.2321 O.2       3 UNK        -0.5208 
     27 CA         23.8228   -2.7179   -0.8520 C.3       3 UNK         0.0250 
     28 CB         22.4547   -2.9957   -0.2076 C.3       3 UNK        -0.1990 
     29 N          24.2696   -3.9210   -1.5572 N.am      3 UNK        -0.4232 
     30 C          25.5485   -4.2016   -1.8375 C.2       2 UNK         0.4993 
     31 O          26.4973   -3.5110   -1.4656 O.2       2 UNK        -0.5286 
     32 CA         25.8306   -5.4340   -2.7208 C.3       2 UNK         0.0209 
     33 CB         24.6572   -6.4369   -2.8166 C.3       2 UNK        -0.1931 
     34 N          26.2753   -5.0094   -4.0548 N.am      2 UNK        -0.4546 
     35 C          25.6046   -4.2096   -4.8959 C.2       1 UNK         0.5154 
     36 O          24.4332   -3.8672   -4.7086 O.2       1 UNK        -0.5181 
     37 C          26.9935    2.2513   -4.8500 C.2       5 UNK         0.5014 
     38 O          28.0817    2.4520   -5.3920 O.2       5 UNK        -0.5248 
     39 N          25.8541    2.8620   -5.2131 N.am      6 UNK        -0.4434 
     40 CA         25.6845    3.8605   -6.2743 C.3       6 UNK         0.0363 
     41 CB         24.2181    4.3234   -6.2867 C.3       6 UNK        -0.1936 
     42 C          26.1147    3.4074   -7.6834 C.2       6 UNK         0.5081 
     43 O          26.2910    4.2632   -8.5511 O.2       6 UNK        -0.5248 
     44 N          26.2974    2.0940   -7.8916 N.am      7 UNK        -0.4718 
     45 CA         26.9061    1.5189   -9.0944 C.3       7 UNK         0.0273 
     46 CB         26.8452   -0.0136   -9.0133 C.3       7 UNK        -0.1935 
     47 C          28.3570    1.9831   -9.3209 C.2       7 UNK         0.5018 
     48 O          28.7506    2.1575  -10.4747 O.2       7 UNK        -0.5186 
     49 N          29.1061    2.1862   -8.2233 N.am      8 UNK        -0.4240 
     50 CA         30.4699    2.7256   -8.1032 C.3       8 UNK         0.0235 
     51 CB         30.5102    4.2031   -8.5363 C.3       8 UNK        -0.2000 
     52 C          31.5881    1.9265   -8.7999 C.2       8 UNK         0.4941 
     53 O          32.6171    1.6716   -8.1756 O.2       8 UNK        -0.5273 
     54 N          31.3782    1.5391  -10.0642 N.am      9 UNK        -0.4262 
     55 CA         32.3399    0.8928  -10.9672 C.3       9 UNK         0.0264 
     56 CB         31.6950    0.7532  -12.3561 C.3       9 UNK        -0.1955 
     57 C          32.8877   -0.4653  -10.4904 C.2       9 UNK         0.5031 
     58 O          33.9131   -0.9135  -11.0053 O.2       9 UNK        -0.5390 
     59 N          32.2121   -1.0906   -9.5182 N.am      10 UNK        -0.4204 
     60 CA         32.6701   -2.2871   -8.8123 C.3       10 UNK         0.0237 
     61 CB         31.5031   -2.8520   -7.9876 C.3       10 UNK        -0.1985 
     62 C          33.9048   -2.0388   -7.9214 C.2       10 UNK         0.4970 
     63 O          34.6498   -2.9860   -7.6669 O.2       10 UNK        -0.4914 
     64 N          34.1056   -0.7926   -7.4724 N.am      11 UNK        -0.4285 
     65 CA         35.2868   -0.3528   -6.7208 C.3       11 UNK         0.1007 
     66 C          36.3819    0.1657   -7.6880 C.2       11 UNK         0.5703 
     67 N          37.6454   -0.1211   -7.4047 N.am      11 UNK        -0.7361 
     68 O          36.1052    0.8556   -8.6675 O.2       11 UNK        -0.4986 
     69 C69        34.9173    0.7262   -5.6703 C.3       12 UNK        -0.0947 
     70 S70        33.9433    0.0276   -4.2985 S.3       12 UNK        -0.2240 
     71 C71        32.2513    0.4687   -4.7928 C.3       12 UNK         0.0194 
     72 H72        23.8161   -1.3315   -8.0929 H         1 UNK         0.0906 
     73 H73        24.0335   -2.1793   -9.6276 H         1 UNK         0.0906 
     74 H74        22.7582   -2.6771   -8.5120 H         1 UNK         0.0906 
     75 H75        25.4155   -1.8804   -6.6162 H         1 UNK         0.3140 
     76 H76        26.7063   -4.5360   -6.7005 H         1 UNK         0.1085 
     77 H77        27.4705   -2.2815   -4.7805 H         1 UNK         0.0836 
     78 H78        27.9292   -2.1572   -6.4483 H         1 UNK         0.0836 
     79 H79        30.4046   -4.3266   -3.4656 H         1 UNK         0.0731 
     80 H80        28.7342   -4.0022   -3.0788 H         1 UNK         0.0731 
     81 H81        31.3391   -2.0745   -5.0360 H         1 UNK         0.1312 
     82 H82        30.9519    1.4171   -2.5837 H         1 UNK         0.1406 
     83 H83        28.6714   -2.0994   -1.6785 H         1 UNK         0.1631 
     84 H84        29.6677    1.3549   -0.5675 H         1 UNK         0.0717 
     85 H85        29.3047   -0.2183    0.0957 H         1 UNK         0.0717 
     86 H86        26.7026    2.7272   -2.1184 H         1 UNK         0.0934 
     87 H87        28.3564    2.3300   -2.4932 H         1 UNK         0.0934 
     88 H88        27.5917    0.4193   -3.9387 H         1 UNK         0.0739 
     89 H89        25.1490    0.6926   -2.6359 H         1 UNK         0.3093 
     90 H90        22.9872    0.2762   -3.6009 H         1 UNK         0.0818 
     91 H91        23.0569   -1.9198   -5.7253 H         1 UNK         0.0819 
     92 H92        21.6327   -1.2807   -4.9179 H         1 UNK         0.0819 
     93 H93        22.5621   -0.2558   -5.9989 H         1 UNK         0.0819 
     94 H94        23.7201   -2.5876   -3.4679 H         1 UNK         0.3041 
     95 H95        24.5337   -2.4949   -0.0530 H         1 UNK         0.0784 
     96 H96        22.1046   -2.1284    0.3541 H         1 UNK         0.0793 
     97 H97        21.6949   -3.2281   -0.9549 H         1 UNK         0.0793 
     98 H98        22.5072   -3.8314    0.4906 H         1 UNK         0.0793 
     99 H99        23.5530   -4.5285   -1.9282 H         1 UNK         0.3024 
    100 H100       26.6706   -5.9530   -2.2557 H         1 UNK         0.1171 
    101 H101       24.9539   -7.3265   -3.3723 H         1 UNK         0.0786 
    102 H102       24.3450   -6.7713   -1.8262 H         1 UNK         0.0786 
    103 H103       23.7830   -6.0195   -3.3168 H         1 UNK         0.0786 
    104 H104       27.2393   -5.2155   -4.2818 H         1 UNK         0.2977 
    105 H105       25.0182    2.6178   -4.7033 H         1 UNK         0.3127 
    106 H106       26.3124    4.7151   -6.0142 H         1 UNK         0.0770 
    107 H107       23.5382    3.5011   -6.5135 H         1 UNK         0.0814 
    108 H108       24.0574    5.0953   -7.0408 H         1 UNK         0.0814 
    109 H109       23.9256    4.7492   -5.3266 H         1 UNK         0.0814 
    110 H110       26.0991    1.4574   -7.1300 H         1 UNK         0.2983 
    111 H111       26.3192    1.8448   -9.9560 H         1 UNK         0.0947 
    112 H112       27.3047   -0.4731   -9.8896 H         1 UNK         0.0806 
    113 H113       25.8144   -0.3591   -8.9728 H         1 UNK         0.0806 
    114 H114       27.3628   -0.3949   -8.1324 H         1 UNK         0.0806 
    115 H115       28.6503    2.0312   -7.3285 H         1 UNK         0.3000 
    116 H116       30.6940    2.6960   -7.0353 H         1 UNK         0.0850 
    117 H117       31.5002    4.6314   -8.3734 H         1 UNK         0.0810 
    118 H118       29.8001    4.8007   -7.9643 H         1 UNK         0.0810 
    119 H119       30.2729    4.3247   -9.5937 H         1 UNK         0.0810 
    120 H120       30.4680    1.7762  -10.4591 H         1 UNK         0.3040 
    121 H121       33.1976    1.5630  -11.0532 H         1 UNK         0.0766 
    122 H122       32.3895    0.3069  -13.0694 H         1 UNK         0.0812 
    123 H123       31.4014    1.7236  -12.7569 H         1 UNK         0.0812 
    124 H124       30.8067    0.1209  -12.3246 H         1 UNK         0.0812 
    125 H125       31.3738   -0.6475   -9.1731 H         1 UNK         0.3205 
    126 H126       32.9546   -3.0329   -9.5576 H         1 UNK         0.0754 
    127 H127       31.0942   -2.1069   -7.3055 H         1 UNK         0.0769 
    128 H128       31.8181   -3.7083   -7.3893 H         1 UNK         0.0769 
    129 H129       30.6913   -3.1917   -8.6312 H         1 UNK         0.0769 
    130 H130       33.4939   -0.0433   -7.7818 H         1 UNK         0.2981 
    131 H131       35.7015   -1.2077   -6.1822 H         1 UNK         0.0541 
    132 H132       37.8869   -0.6743   -6.5971 H         1 UNK         0.3459 
    133 H133       38.3728    0.2201   -8.0136 H         1 UNK         0.3459 
    134 H134       34.3804    1.5593   -6.1272 H         1 UNK         0.0612 
    135 H135       35.8197    1.1535   -5.2290 H         1 UNK         0.0612 
    136 H136       32.0850    0.1944   -5.8348 H         1 UNK         0.0624 
    137 H137       32.1234    1.5505   -4.7322 H         1 UNK         0.0624 
@<TRIPOS>BOND
     1    1    2 1    
     2    1   72 1    
     3    1   73 1    
     4    1   74 1    
     5    2    3 2    
     6    2    4 am   BACKBONE|DICT|INTERRES
     7    4    5 1    
     8    4   75 1    
     9    5    6 1    
    10    5   35 1    
    11    5   76 1    
    12    6    7 1    
    13    6   77 1    
    14    6   78 1    
    15    7    8 1    
    16    8    9 1    
    17    8   79 1    
    18    8   80 1    
    19    9   10 ar   
    20    9   14 ar   
    21   10   11 ar   
    22   10   81 1    
    23   11   12 ar   
    24   11   71 1    
    25   12   13 ar   
    26   12   82 1    
    27   13   14 ar   
    28   13   15 1    
    29   14   83 1    
    30   15   16 1    
    31   15   84 1    
    32   15   85 1    
    33   16   17 1    
    34   17   18 1    
    35   17   86 1    
    36   17   87 1    
    37   18   19 1    
    38   18   37 1    
    39   18   88 1    
    40   19   20 am   BACKBONE|DICT|INTERRES
    41   19   89 1    
    42   20   21 2    
    43   20   22 1    
    44   22   23 1    
    45   22   24 1    
    46   22   90 1    
    47   23   91 1    
    48   23   92 1    
    49   23   93 1    
    50   24   25 am   BACKBONE|DICT|INTERRES
    51   24   94 1    
    52   25   26 2    
    53   25   27 1    
    54   27   28 1    
    55   27   29 1    
    56   27   95 1    
    57   28   96 1    
    58   28   97 1    
    59   28   98 1    
    60   29   30 am   BACKBONE|DICT|INTERRES
    61   29   99 1    
    62   30   31 2    
    63   30   32 1    
    64   32   33 1    
    65   32   34 1    
    66   32  100 1    
    67   33  101 1    
    68   33  102 1    
    69   33  103 1    
    70   34   35 am   BACKBONE|DICT|INTERRES
    71   34  104 1    
    72   35   36 2    
    73   37   38 2    
    74   37   39 am   BACKBONE|DICT|INTERRES
    75   39   40 1    
    76   39  105 1    
    77   40   41 1    
    78   40   42 1    
    79   40  106 1    
    80   41  107 1    
    81   41  108 1    
    82   41  109 1    
    83   42   43 2    
    84   42   44 am   BACKBONE|DICT|INTERRES
    85   44   45 1    
    86   44  110 1    
    87   45   46 1    
    88   45   47 1    
    89   45  111 1    
    90   46  112 1    
    91   46  113 1    
    92   46  114 1    
    93   47   48 2    
    94   47   49 am   BACKBONE|DICT|INTERRES
    95   49   50 1    
    96   49  115 1    
    97   50   51 1    
    98   50   52 1    
    99   50  116 1    
   100   51  117 1    
   101   51  118 1    
   102   51  119 1    
   103   52   53 2    
   104   52   54 am   BACKBONE|DICT|INTERRES
   105   54   55 1    
   106   54  120 1    
   107   55   56 1    
   108   55   57 1    
   109   55  121 1    
   110   56  122 1    
   111   56  123 1    
   112   56  124 1    
   113   57   58 2    
   114   57   59 am   BACKBONE|DICT|INTERRES
   115   59   60 1    
   116   59  125 1    
   117   60   61 1    
   118   60   62 1    
   119   60  126 1    
   120   61  127 1    
   121   61  128 1    
   122   61  129 1    
   123   62   63 2    
   124   62   64 am   BACKBONE|DICT|INTERRES
   125   64   65 1    
   126   64  130 1    
   127   65   66 1    
   128   65   69 1    
   129   65  131 1    
   130   66   67 am   BACKBONE|DICT|INTERRES
   131   66   68 2    
   132   67  132 1    
   133   67  133 1    
   134   69   70 1    
   135   69  134 1    
   136   69  135 1    
   137   70   71 1    
   138   71  136 1    
   139   71  137 1    
@<TRIPOS>SUBSTRUCTURE
     1 UNK         1 GROUP             0       ****    0 ROOT    
