@<TRIPOS>MOLECULE
3R137
137   139    1
SMALL
USER_CHARGES


@<TRIPOS>ATOM
      1 CA         28.3886   -5.3524    0.9861 C.3       0 UNK        -0.2020 
      2 C          28.1279   -4.1973    0.0321 C.2       0 UNK         0.4855 
      3 O          27.5827   -4.4146   -1.0499 O.2       0 UNK        -0.5197 
      4 N          28.5095   -2.9747    0.4292 N.am      1 UNK        -0.4892 
      5 CA         28.4003   -1.6953   -0.2962 C.3       1 UNK         0.0835 
      6 C6         29.1715   -1.6590   -1.6431 C.3       12 UNK        -0.0855 
      7 S7         30.9804   -1.7746   -1.4150 S.3       12 UNK        -0.2931 
      8 C8         31.3415   -3.5088   -1.8425 C.3       12 UNK         0.0378 
      9 C9         31.0657   -3.8133   -3.3076 C.ar      12 UNK        -0.0802 
     10 C10        31.9360   -3.3517   -4.2991 C.ar      12 UNK        -0.0944 
     11 C11        31.6810   -3.6174   -5.6479 C.ar      12 UNK        -0.0787 
     12 C12        30.5599   -4.3764   -5.9979 C.ar      12 UNK        -0.0862 
     13 C13        29.6912   -4.8593   -5.0133 C.ar      12 UNK        -0.0733 
     14 C14        29.9490   -4.5711   -3.6709 C.ar      12 UNK        -0.0832 
     15 C15        28.4964   -5.7259   -5.3887 C.3       12 UNK         0.0240 
     16 S16        27.3777   -4.9171   -6.5731 S.3       12 UNK        -0.2522 
     17 C17        26.5989   -3.6236   -5.5498 C.3       12 UNK        -0.0967 
     18 CA         26.1177   -2.4382   -6.4301 C.3       5 UNK         0.0660 
     19 N          24.7831   -1.9689   -6.0469 N.am      5 UNK        -0.4015 
     20 C          23.8380   -1.5758   -6.9136 C.2       4 UNK         0.4946 
     21 O          23.9809   -1.5865   -8.1366 O.2       4 UNK        -0.5353 
     22 CA         22.4987   -1.0886   -6.3310 C.3       4 UNK         0.0277 
     23 CB         21.4998   -2.2535   -6.2372 C.3       4 UNK        -0.1981 
     24 N          22.6280   -0.4557   -5.0174 N.am      4 UNK        -0.4209 
     25 C          23.2227    0.7253   -4.8002 C.2       3 UNK         0.4942 
     26 O          23.6884    1.4335   -5.6923 O.2       3 UNK        -0.5208 
     27 CA         23.3488    1.1791   -3.3349 C.3       3 UNK         0.0250 
     28 CB         22.1170    2.0019   -2.9242 C.3       3 UNK        -0.1990 
     29 N          23.5593    0.0983   -2.3607 N.am      3 UNK        -0.4232 
     30 C          24.5292   -0.8260   -2.4122 C.2       2 UNK         0.4993 
     31 O          25.2930   -0.9735   -3.3696 O.2       2 UNK        -0.5286 
     32 CA         24.6406   -1.7799   -1.2140 C.3       2 UNK         0.0209 
     33 CB         23.9010   -3.0942   -1.5105 C.3       2 UNK        -0.1931 
     34 N          26.0391   -2.0813   -0.9047 N.am      2 UNK        -0.4546 
     35 C          26.9482   -1.1989   -0.4724 C.2       1 UNK         0.5154 
     36 O          26.6769   -0.0293   -0.1949 O.2       1 UNK        -0.5181 
     37 C          27.1195   -1.2689   -6.4442 C.2       5 UNK         0.5014 
     38 O          27.9516   -1.1951   -7.3466 O.2       5 UNK        -0.5248 
     39 N          26.9769   -0.3274   -5.4986 N.am      6 UNK        -0.4434 
     40 CA         27.7511    0.9168   -5.4083 C.3       6 UNK         0.0363 
     41 CB         27.4263    1.6124   -4.0771 C.3       6 UNK        -0.1936 
     42 C          27.5412    1.8888   -6.5898 C.2       6 UNK         0.5081 
     43 O          28.2881    2.8599   -6.7094 O.2       6 UNK        -0.5248 
     44 N          26.5462    1.6194   -7.4445 N.am      7 UNK        -0.4718 
     45 CA         26.3169    2.2984   -8.7196 C.3       7 UNK         0.0273 
     46 CB         24.8692    2.0273   -9.1622 C.3       7 UNK        -0.1935 
     47 C          27.3086    1.8847   -9.8286 C.2       7 UNK         0.5018 
     48 O          27.3486    2.5560  -10.8616 O.2       7 UNK        -0.5186 
     49 N          28.0652    0.7933   -9.6292 N.am      8 UNK        -0.4240 
     50 CA         29.0866    0.2998  -10.5591 C.3       8 UNK         0.0235 
     51 CB         29.4675   -1.1372  -10.1631 C.3       8 UNK        -0.2000 
     52 C          30.3370    1.1992  -10.6059 C.2       8 UNK         0.4941 
     53 O          30.5120    2.0790   -9.7597 O.2       8 UNK        -0.5273 
     54 N          31.2009    0.9507  -11.5994 N.am      9 UNK        -0.4262 
     55 CA         32.4713    1.6540  -11.7950 C.3       9 UNK         0.0264 
     56 CB         33.1281    1.1642  -13.0959 C.3       9 UNK        -0.1955 
     57 C          33.4309    1.4696  -10.6055 C.2       9 UNK         0.5031 
     58 O          33.5652    0.3537  -10.0976 O.2       9 UNK        -0.5390 
     59 N          34.0820    2.5685  -10.2023 N.am      10 UNK        -0.4204 
     60 CA         35.0337    2.7180   -9.0928 C.3       10 UNK         0.0237 
     61 CB         36.2754    1.8204   -9.2715 C.3       10 UNK        -0.1985 
     62 C          34.4112    2.5491   -7.6947 C.2       10 UNK         0.4970 
     63 O          34.5468    3.4560   -6.8722 O.2       10 UNK        -0.4914 
     64 N          33.7621    1.4078   -7.4403 N.am      11 UNK        -0.4285 
     65 CA         33.1206    1.0810   -6.1569 C.3       11 UNK         0.1007 
     66 C          31.7484    1.7675   -5.9056 C.2       11 UNK         0.5703 
     67 N          31.0808    2.3156   -6.9105 N.am      11 UNK        -0.7361 
     68 O          31.2898    1.8156   -4.7669 O.2       11 UNK        -0.4986 
     69 C69        33.0633   -0.4475   -5.9043 C.3       12 UNK        -0.0947 
     70 S70        32.2174   -1.3937   -7.2157 S.3       12 UNK        -0.2240 
     71 C71        32.6201   -3.1004   -6.7285 C.3       12 UNK         0.0194 
     72 H72        29.0242   -6.0964    0.5068 H         1 UNK         0.0906 
     73 H73        27.4489   -5.8321    1.2587 H         1 UNK         0.0906 
     74 H74        28.8810   -5.0249    1.9014 H         1 UNK         0.0906 
     75 H75        28.9271   -2.8865    1.3457 H         1 UNK         0.3140 
     76 H76        28.8719   -0.9601    0.3587 H         1 UNK         0.1085 
     77 H77        28.9886   -0.7146   -2.1590 H         1 UNK         0.0836 
     78 H78        28.8150   -2.4325   -2.3227 H         1 UNK         0.0836 
     79 H79        32.3922   -3.7093   -1.6280 H         1 UNK         0.0731 
     80 H80        30.7713   -4.1721   -1.1920 H         1 UNK         0.0731 
     81 H81        32.8066   -2.7758   -4.0177 H         1 UNK         0.1312 
     82 H82        30.3612   -4.5934   -7.0386 H         1 UNK         0.1406 
     83 H83        29.2818   -4.9430   -2.9056 H         1 UNK         0.1631 
     84 H84        27.9252   -6.0158   -4.5050 H         1 UNK         0.0717 
     85 H85        28.8645   -6.6513   -5.8333 H         1 UNK         0.0717 
     86 H86        25.7573   -4.0927   -5.0372 H         1 UNK         0.0934 
     87 H87        27.2784   -3.3002   -4.7578 H         1 UNK         0.0934 
     88 H88        26.0533   -2.7872   -7.4634 H         1 UNK         0.0739 
     89 H89        24.6217   -1.8480   -5.0532 H         1 UNK         0.3093 
     90 H90        22.0930   -0.3466   -7.0226 H         1 UNK         0.0818 
     91 H91        21.3636   -2.7289   -7.2098 H         1 UNK         0.0819 
     92 H92        21.8388   -3.0237   -5.5432 H         1 UNK         0.0819 
     93 H93        20.5190   -1.9105   -5.9072 H         1 UNK         0.0819 
     94 H94        22.2666   -0.9634   -4.2231 H         1 UNK         0.3041 
     95 H95        24.2203    1.8324   -3.2759 H         1 UNK         0.0784 
     96 H96        21.9484    2.8263   -3.6189 H         1 UNK         0.0793 
     97 H97        21.2106    1.3953   -2.9125 H         1 UNK         0.0793 
     98 H98        22.2425    2.4391   -1.9334 H         1 UNK         0.0793 
     99 H99        22.9633    0.1205   -1.5453 H         1 UNK         0.3024 
    100 H100       24.1950   -1.3067   -0.3362 H         1 UNK         0.1171 
    101 H101       24.3257   -3.6092   -2.3736 H         1 UNK         0.0786 
    102 H102       23.9474   -3.7750   -0.6602 H         1 UNK         0.0786 
    103 H103       22.8463   -2.9137   -1.7227 H         1 UNK         0.0786 
    104 H104       26.3758   -3.0182   -1.1150 H         1 UNK         0.2977 
    105 H105       26.2934   -0.4846   -4.7582 H         1 UNK         0.3127 
    106 H106       28.8072    0.6402   -5.4027 H         1 UNK         0.0770 
    107 H107       27.5602    0.9424   -3.2281 H         1 UNK         0.0814 
    108 H108       28.0803    2.4710   -3.9193 H         1 UNK         0.0814 
    109 H109       26.3998    1.9765   -4.0595 H         1 UNK         0.0814 
    110 H110       25.9456    0.8349   -7.2357 H         1 UNK         0.2983 
    111 H111       26.4347    3.3730   -8.5642 H         1 UNK         0.0947 
    112 H112       24.6929    0.9646   -9.3346 H         1 UNK         0.0806 
    113 H113       24.6379    2.5519  -10.0902 H         1 UNK         0.0806 
    114 H114       24.1547    2.3672   -8.4118 H         1 UNK         0.0806 
    115 H115       27.9875    0.2967   -8.7472 H         1 UNK         0.3000 
    116 H116       28.6490    0.2806  -11.5595 H         1 UNK         0.0850 
    117 H117       30.1680   -1.5776  -10.8733 H         1 UNK         0.0810 
    118 H118       28.5921   -1.7861  -10.1290 H         1 UNK         0.0810 
    119 H119       29.9408   -1.1666   -9.1811 H         1 UNK         0.0810 
    120 H120       31.0065    0.1897  -12.2334 H         1 UNK         0.3040 
    121 H121       32.2416    2.7163  -11.9030 H         1 UNK         0.0766 
    122 H122       33.3568    0.0982  -13.0547 H         1 UNK         0.0812 
    123 H123       34.0653    1.6903  -13.2826 H         1 UNK         0.0812 
    124 H124       32.4838    1.3377  -13.9581 H         1 UNK         0.0812 
    125 H125       33.8681    3.4310  -10.6849 H         1 UNK         0.3205 
    126 H126       35.3800    3.7514   -9.1510 H         1 UNK         0.0754 
    127 H127       36.0300    0.7595   -9.2160 H         1 UNK         0.0769 
    128 H128       37.0134    2.0208   -8.4937 H         1 UNK         0.0769 
    129 H129       36.7594    2.0015  -10.2312 H         1 UNK         0.0769 
    130 H130       33.6484    0.7369   -8.1957 H         1 UNK         0.2981 
    131 H131       33.7705    1.4804   -5.3757 H         1 UNK         0.0541 
    132 H132       30.1632    2.7119   -6.7329 H         1 UNK         0.3459 
    133 H133       31.3870    2.2227   -7.8700 H         1 UNK         0.3459 
    134 H134       32.5770   -0.6541   -4.9499 H         1 UNK         0.0612 
    135 H135       34.0801   -0.8314   -5.8115 H         1 UNK         0.0612 
    136 H136       32.5537   -3.7355   -7.6131 H         1 UNK         0.0624 
    137 H137       33.6562   -3.1592   -6.3921 H         1 UNK         0.0624 
@<TRIPOS>BOND
     1    1    2 1    
     2    1   72 1    
     3    1   73 1    
     4    1   74 1    
     5    2    3 2    
     6    2    4 am   BACKBONE|DICT|INTERRES
     7    4    5 1    
     8    4   75 1    
     9    5    6 1    
    10    5   35 1    
    11    5   76 1    
    12    6    7 1    
    13    6   77 1    
    14    6   78 1    
    15    7    8 1    
    16    8    9 1    
    17    8   79 1    
    18    8   80 1    
    19    9   10 ar   
    20    9   14 ar   
    21   10   11 ar   
    22   10   81 1    
    23   11   12 ar   
    24   11   71 1    
    25   12   13 ar   
    26   12   82 1    
    27   13   14 ar   
    28   13   15 1    
    29   14   83 1    
    30   15   16 1    
    31   15   84 1    
    32   15   85 1    
    33   16   17 1    
    34   17   18 1    
    35   17   86 1    
    36   17   87 1    
    37   18   19 1    
    38   18   37 1    
    39   18   88 1    
    40   19   20 am   BACKBONE|DICT|INTERRES
    41   19   89 1    
    42   20   21 2    
    43   20   22 1    
    44   22   23 1    
    45   22   24 1    
    46   22   90 1    
    47   23   91 1    
    48   23   92 1    
    49   23   93 1    
    50   24   25 am   BACKBONE|DICT|INTERRES
    51   24   94 1    
    52   25   26 2    
    53   25   27 1    
    54   27   28 1    
    55   27   29 1    
    56   27   95 1    
    57   28   96 1    
    58   28   97 1    
    59   28   98 1    
    60   29   30 am   BACKBONE|DICT|INTERRES
    61   29   99 1    
    62   30   31 2    
    63   30   32 1    
    64   32   33 1    
    65   32   34 1    
    66   32  100 1    
    67   33  101 1    
    68   33  102 1    
    69   33  103 1    
    70   34   35 am   BACKBONE|DICT|INTERRES
    71   34  104 1    
    72   35   36 2    
    73   37   38 2    
    74   37   39 am   BACKBONE|DICT|INTERRES
    75   39   40 1    
    76   39  105 1    
    77   40   41 1    
    78   40   42 1    
    79   40  106 1    
    80   41  107 1    
    81   41  108 1    
    82   41  109 1    
    83   42   43 2    
    84   42   44 am   BACKBONE|DICT|INTERRES
    85   44   45 1    
    86   44  110 1    
    87   45   46 1    
    88   45   47 1    
    89   45  111 1    
    90   46  112 1    
    91   46  113 1    
    92   46  114 1    
    93   47   48 2    
    94   47   49 am   BACKBONE|DICT|INTERRES
    95   49   50 1    
    96   49  115 1    
    97   50   51 1    
    98   50   52 1    
    99   50  116 1    
   100   51  117 1    
   101   51  118 1    
   102   51  119 1    
   103   52   53 2    
   104   52   54 am   BACKBONE|DICT|INTERRES
   105   54   55 1    
   106   54  120 1    
   107   55   56 1    
   108   55   57 1    
   109   55  121 1    
   110   56  122 1    
   111   56  123 1    
   112   56  124 1    
   113   57   58 2    
   114   57   59 am   BACKBONE|DICT|INTERRES
   115   59   60 1    
   116   59  125 1    
   117   60   61 1    
   118   60   62 1    
   119   60  126 1    
   120   61  127 1    
   121   61  128 1    
   122   61  129 1    
   123   62   63 2    
   124   62   64 am   BACKBONE|DICT|INTERRES
   125   64   65 1    
   126   64  130 1    
   127   65   66 1    
   128   65   69 1    
   129   65  131 1    
   130   66   67 am   BACKBONE|DICT|INTERRES
   131   66   68 2    
   132   67  132 1    
   133   67  133 1    
   134   69   70 1    
   135   69  134 1    
   136   69  135 1    
   137   70   71 1    
   138   71  136 1    
   139   71  137 1    
@<TRIPOS>SUBSTRUCTURE
     1 UNK         1 GROUP             0       ****    0 ROOT    
