@<TRIPOS>MOLECULE
3R137
137   139    1
SMALL
USER_CHARGES


@<TRIPOS>ATOM
      1 CA         26.9537   -7.3621    0.4133 C.3       0 UNK        -0.2020 
      2 C          27.0043   -5.8455    0.3021 C.2       0 UNK         0.4855 
      3 O          26.4666   -5.1501    1.1649 O.2       0 UNK        -0.5197 
      4 N          27.6547   -5.3280   -0.7472 N.am      1 UNK        -0.4892 
      5 CA         27.7605   -3.8945   -1.0420 C.3       1 UNK         0.0835 
      6 C6         28.8751   -3.5974   -2.0744 C.3       12 UNK        -0.0855 
      7 S7         30.5215   -4.1305   -1.4981 S.3       12 UNK        -0.2931 
      8 C8         31.1238   -2.6380   -0.6375 C.3       12 UNK         0.0378 
      9 C9         31.3276   -1.4500   -1.5712 C.ar      12 UNK        -0.0802 
     10 C10        32.1550   -1.5668   -2.6903 C.ar      12 UNK        -0.0944 
     11 C11        32.3508   -0.4827   -3.5494 C.ar      12 UNK        -0.0787 
     12 C12        31.7320    0.7399   -3.2699 C.ar      12 UNK        -0.0862 
     13 C13        30.9110    0.8764   -2.1440 C.ar      12 UNK        -0.0733 
     14 C14        30.7095   -0.2245   -1.3033 C.ar      12 UNK        -0.0832 
     15 C15        30.2633    2.2155   -1.8021 C.3       12 UNK         0.0240 
     16 S16        29.2993    2.9445   -3.1682 S.3       12 UNK        -0.2522 
     17 C17        28.0779    1.6408   -3.5375 C.3       12 UNK        -0.0967 
     18 CA         28.0393    1.3366   -5.0573 C.3       5 UNK         0.0660 
     19 N          27.7787   -0.0742   -5.3388 N.am      5 UNK        -0.4015 
     20 C          27.9688   -0.6628   -6.5280 C.2       4 UNK         0.4946 
     21 O          28.4227   -0.0881   -7.5169 O.2       4 UNK        -0.5353 
     22 CA         27.5442   -2.1349   -6.6427 C.3       4 UNK         0.0277 
     23 CB         28.6820   -3.0578   -6.1780 C.3       4 UNK        -0.1981 
     24 N          26.3184   -2.4246   -5.8907 N.am      4 UNK        -0.4209 
     25 C          25.1180   -1.9080   -6.1948 C.2       3 UNK         0.4942 
     26 O          24.9128   -1.1752   -7.1614 O.2       3 UNK        -0.5208 
     27 CA         23.9609   -2.2213   -5.2342 C.3       3 UNK         0.0250 
     28 CB         23.3521   -3.5971   -5.5473 C.3       3 UNK        -0.1990 
     29 N          24.3322   -2.1599   -3.8175 N.am      3 UNK        -0.4232 
     30 C          24.8173   -1.0880   -3.1771 C.2       2 UNK         0.4993 
     31 O          25.1085   -0.0300   -3.7343 O.2       2 UNK        -0.5286 
     32 CA         25.0294   -1.2167   -1.6597 C.3       2 UNK         0.0209 
     33 CB         23.7572   -1.6995   -0.9308 C.3       2 UNK        -0.1931 
     34 N          26.2004   -2.0262   -1.2965 N.am      2 UNK        -0.4546 
     35 C          26.4142   -3.3285   -1.5371 C.2       1 UNK         0.5154 
     36 O          25.6274   -4.0584   -2.1474 O.2       1 UNK        -0.5181 
     37 C          27.0367    2.2389   -5.8010 C.2       5 UNK         0.5014 
     38 O          27.4555    3.1678   -6.4938 O.2       5 UNK        -0.5248 
     39 N          25.7402    1.9078   -5.6870 N.am      6 UNK        -0.4434 
     40 CA         24.6162    2.5806   -6.3484 C.3       6 UNK         0.0363 
     41 CB         23.2981    1.9449   -5.8802 C.3       6 UNK        -0.1936 
     42 C          24.7005    2.5732   -7.8853 C.2       6 UNK         0.5081 
     43 O          24.2381    3.5206   -8.5199 O.2       6 UNK        -0.5248 
     44 N          25.3423    1.5444   -8.4537 N.am      7 UNK        -0.4718 
     45 CA         25.6958    1.4248   -9.8716 C.3       7 UNK         0.0273 
     46 CB         25.8713   -0.0673  -10.2037 C.3       7 UNK        -0.1935 
     47 C          26.9340    2.2581  -10.2815 C.2       7 UNK         0.5018 
     48 O          27.5257    1.9755  -11.3238 O.2       7 UNK        -0.5186 
     49 N          27.2972    3.2653   -9.4722 N.am      8 UNK        -0.4240 
     50 CA         28.4278    4.1886   -9.6118 C.3       8 UNK         0.0235 
     51 CB         28.3312    5.0147  -10.9134 C.3       8 UNK        -0.2000 
     52 C          29.7784    3.4758   -9.4309 C.2       8 UNK         0.4941 
     53 O          30.6812    3.6491  -10.2519 O.2       8 UNK        -0.5273 
     54 N          29.8786    2.6953   -8.3433 N.am      9 UNK        -0.4262 
     55 CA         31.0317    1.8826   -7.9341 C.3       9 UNK         0.0264 
     56 CB         32.2043    2.7779   -7.4826 C.3       9 UNK        -0.1955 
     57 C          31.4319    0.8569   -9.0103 C.2       9 UNK         0.5031 
     58 O          32.5797    0.8357   -9.4630 O.2       9 UNK        -0.5390 
     59 N          30.4736    0.0019   -9.3892 N.am      10 UNK        -0.4204 
     60 CA         30.6298   -1.1001  -10.3445 C.3       10 UNK         0.0237 
     61 CB         29.2445   -1.4775  -10.8990 C.3       10 UNK        -0.1985 
     62 C          31.3570   -2.2985   -9.7019 C.2       10 UNK         0.4970 
     63 O          30.8242   -3.4093   -9.6701 O.2       10 UNK        -0.4914 
     64 N          32.5489   -2.0267   -9.1666 N.am      11 UNK        -0.4285 
     65 CA         33.3510   -2.9299   -8.3320 C.3       11 UNK         0.1007 
     66 C          34.5527   -3.5698   -9.0834 C.2       11 UNK         0.5703 
     67 N          34.7595   -3.2957  -10.3664 N.am      11 UNK        -0.7361 
     68 O          35.3040   -4.3458   -8.4972 O.2       11 UNK        -0.4986 
     69 C69        33.7998   -2.2083   -7.0333 C.3       12 UNK        -0.0947 
     70 S70        32.3809   -1.6200   -6.0489 S.3       12 UNK        -0.2240 
     71 C71        33.2360   -0.6517   -4.7726 C.3       12 UNK         0.0194 
     72 H72        27.4078   -7.6853    1.3497 H         1 UNK         0.0906 
     73 H73        25.9192   -7.7045    0.3998 H         1 UNK         0.0906 
     74 H74        27.4827   -7.8494   -0.4056 H         1 UNK         0.0906 
     75 H75        28.0720   -5.9440   -1.4300 H         1 UNK         0.3140 
     76 H76        28.0108   -3.3845   -0.1088 H         1 UNK         0.1085 
     77 H77        28.6679   -4.1146   -3.0131 H         1 UNK         0.0836 
     78 H78        28.9117   -2.5349   -2.3220 H         1 UNK         0.0836 
     79 H79        32.0757   -2.8717   -0.1588 H         1 UNK         0.0731 
     80 H80        30.4302   -2.3900    0.1673 H         1 UNK         0.0731 
     81 H81        32.6369   -2.5115   -2.9036 H         1 UNK         0.1312 
     82 H82        31.8883    1.5859   -3.9254 H         1 UNK         0.1406 
     83 H83        30.0819   -0.1225   -0.4282 H         1 UNK         0.1631 
     84 H84        31.0469    2.9182   -1.5161 H         1 UNK         0.0717 
     85 H85        29.6082    2.1200   -0.9348 H         1 UNK         0.0717 
     86 H86        27.1020    1.9377   -3.1472 H         1 UNK         0.0934 
     87 H87        28.3456    0.7424   -2.9808 H         1 UNK         0.0934 
     88 H88        29.0279    1.5426   -5.4714 H         1 UNK         0.0739 
     89 H89        27.3323   -0.6038   -4.6056 H         1 UNK         0.3093 
     90 H90        27.3469   -2.3411   -7.6971 H         1 UNK         0.0818 
     91 H91        28.9651   -2.8686   -5.1421 H         1 UNK         0.0819 
     92 H92        28.4072   -4.1087   -6.2687 H         1 UNK         0.0819 
     93 H93        29.5738   -2.9057   -6.7885 H         1 UNK         0.0819 
     94 H94        26.3929   -3.0326   -5.0880 H         1 UNK         0.3041 
     95 H95        23.1902   -1.4657   -5.3980 H         1 UNK         0.0784 
     96 H96        23.0569   -3.6645   -6.5955 H         1 UNK         0.0793 
     97 H97        24.0576   -4.4062   -5.3533 H         1 UNK         0.0793 
     98 H98        22.4594   -3.7805   -4.9490 H         1 UNK         0.0793 
     99 H99        24.2460   -3.0154   -3.2795 H         1 UNK         0.3024 
    100 H100       25.2368   -0.2071   -1.2996 H         1 UNK         0.1171 
    101 H101       23.8823   -1.6469    0.1508 H         1 UNK         0.0786 
    102 H102       22.9009   -1.0738   -1.1863 H         1 UNK         0.0786 
    103 H103       23.4939   -2.7272   -1.1816 H         1 UNK         0.0786 
    104 H104       26.9241   -1.5168   -0.8082 H         1 UNK         0.2977 
    105 H105       25.4964    1.1371   -5.0651 H         1 UNK         0.3127 
    106 H106       24.6283    3.6237   -6.0260 H         1 UNK         0.0770 
    107 H107       23.2337    0.8963   -6.1719 H         1 UNK         0.0814 
    108 H108       22.4401    2.4585   -6.3159 H         1 UNK         0.0814 
    109 H109       23.1930    1.9982   -4.7964 H         1 UNK         0.0814 
    110 H110       25.6322    0.7785   -7.8561 H         1 UNK         0.2983 
    111 H111       24.8613    1.8024  -10.4662 H         1 UNK         0.0947 
    112 H112       26.0952   -0.2204  -11.2601 H         1 UNK         0.0806 
    113 H113       24.9641   -0.6301   -9.9832 H         1 UNK         0.0806 
    114 H114       26.6826   -0.5083   -9.6256 H         1 UNK         0.0806 
    115 H115       26.7754    3.3673   -8.6105 H         1 UNK         0.3000 
    116 H116       28.3453    4.8891   -8.7791 H         1 UNK         0.0850 
    117 H117       29.0994    5.7884  -10.9390 H         1 UNK         0.0810 
    118 H118       27.3658    5.5138  -10.9961 H         1 UNK         0.0810 
    119 H119       28.4676    4.3967  -11.8012 H         1 UNK         0.0810 
    120 H120       29.0589    2.6281   -7.7488 H         1 UNK         0.3040 
    121 H121       30.7192    1.3020   -7.0658 H         1 UNK         0.0766 
    122 H122       31.9016    3.4526   -6.6820 H         1 UNK         0.0812 
    123 H123       32.5940    3.3815   -8.3029 H         1 UNK         0.0812 
    124 H124       33.0294    2.1739   -7.1032 H         1 UNK         0.0812 
    125 H125       29.5942    0.0336   -8.8719 H         1 UNK         0.3205 
    126 H126       31.2424   -0.7541  -11.1794 H         1 UNK         0.0754 
    127 H127       29.3259   -2.2513  -11.6634 H         1 UNK         0.0769 
    128 H128       28.7549   -0.6186  -11.3587 H         1 UNK         0.0769 
    129 H129       28.5899   -1.8597  -10.1150 H         1 UNK         0.0769 
    130 H130       32.8880   -1.0723   -9.2447 H         1 UNK         0.2981 
    131 H131       32.7286   -3.7739   -8.0293 H         1 UNK         0.0541 
    132 H132       35.5376   -3.7221  -10.8445 H         1 UNK         0.3459 
    133 H133       34.1425   -2.6706  -10.8598 H         1 UNK         0.3459 
    134 H134       34.3868   -2.8779   -6.4020 H         1 UNK         0.0612 
    135 H135       34.4418   -1.3578   -7.2702 H         1 UNK         0.0612 
    136 H136       34.1578   -1.1576   -4.4814 H         1 UNK         0.0624 
    137 H137       33.5254    0.3153   -5.1867 H         1 UNK         0.0624 
@<TRIPOS>BOND
     1    1    2 1    
     2    1   72 1    
     3    1   73 1    
     4    1   74 1    
     5    2    3 2    
     6    2    4 am   BACKBONE|DICT|INTERRES
     7    4    5 1    
     8    4   75 1    
     9    5    6 1    
    10    5   35 1    
    11    5   76 1    
    12    6    7 1    
    13    6   77 1    
    14    6   78 1    
    15    7    8 1    
    16    8    9 1    
    17    8   79 1    
    18    8   80 1    
    19    9   10 ar   
    20    9   14 ar   
    21   10   11 ar   
    22   10   81 1    
    23   11   12 ar   
    24   11   71 1    
    25   12   13 ar   
    26   12   82 1    
    27   13   14 ar   
    28   13   15 1    
    29   14   83 1    
    30   15   16 1    
    31   15   84 1    
    32   15   85 1    
    33   16   17 1    
    34   17   18 1    
    35   17   86 1    
    36   17   87 1    
    37   18   19 1    
    38   18   37 1    
    39   18   88 1    
    40   19   20 am   BACKBONE|DICT|INTERRES
    41   19   89 1    
    42   20   21 2    
    43   20   22 1    
    44   22   23 1    
    45   22   24 1    
    46   22   90 1    
    47   23   91 1    
    48   23   92 1    
    49   23   93 1    
    50   24   25 am   BACKBONE|DICT|INTERRES
    51   24   94 1    
    52   25   26 2    
    53   25   27 1    
    54   27   28 1    
    55   27   29 1    
    56   27   95 1    
    57   28   96 1    
    58   28   97 1    
    59   28   98 1    
    60   29   30 am   BACKBONE|DICT|INTERRES
    61   29   99 1    
    62   30   31 2    
    63   30   32 1    
    64   32   33 1    
    65   32   34 1    
    66   32  100 1    
    67   33  101 1    
    68   33  102 1    
    69   33  103 1    
    70   34   35 am   BACKBONE|DICT|INTERRES
    71   34  104 1    
    72   35   36 2    
    73   37   38 2    
    74   37   39 am   BACKBONE|DICT|INTERRES
    75   39   40 1    
    76   39  105 1    
    77   40   41 1    
    78   40   42 1    
    79   40  106 1    
    80   41  107 1    
    81   41  108 1    
    82   41  109 1    
    83   42   43 2    
    84   42   44 am   BACKBONE|DICT|INTERRES
    85   44   45 1    
    86   44  110 1    
    87   45   46 1    
    88   45   47 1    
    89   45  111 1    
    90   46  112 1    
    91   46  113 1    
    92   46  114 1    
    93   47   48 2    
    94   47   49 am   BACKBONE|DICT|INTERRES
    95   49   50 1    
    96   49  115 1    
    97   50   51 1    
    98   50   52 1    
    99   50  116 1    
   100   51  117 1    
   101   51  118 1    
   102   51  119 1    
   103   52   53 2    
   104   52   54 am   BACKBONE|DICT|INTERRES
   105   54   55 1    
   106   54  120 1    
   107   55   56 1    
   108   55   57 1    
   109   55  121 1    
   110   56  122 1    
   111   56  123 1    
   112   56  124 1    
   113   57   58 2    
   114   57   59 am   BACKBONE|DICT|INTERRES
   115   59   60 1    
   116   59  125 1    
   117   60   61 1    
   118   60   62 1    
   119   60  126 1    
   120   61  127 1    
   121   61  128 1    
   122   61  129 1    
   123   62   63 2    
   124   62   64 am   BACKBONE|DICT|INTERRES
   125   64   65 1    
   126   64  130 1    
   127   65   66 1    
   128   65   69 1    
   129   65  131 1    
   130   66   67 am   BACKBONE|DICT|INTERRES
   131   66   68 2    
   132   67  132 1    
   133   67  133 1    
   134   69   70 1    
   135   69  134 1    
   136   69  135 1    
   137   70   71 1    
   138   71  136 1    
   139   71  137 1    
@<TRIPOS>SUBSTRUCTURE
     1 UNK         1 GROUP             0       ****    0 ROOT    
