@<TRIPOS>MOLECULE
3R137
137   139    1
SMALL
USER_CHARGES


@<TRIPOS>ATOM
      1 CA         30.0678    2.7274    0.0136 C.3       0 UNK        -0.2020 
      2 C          29.7261    2.0421   -1.3001 C.2       0 UNK         0.4855 
      3 O          29.9544    2.6152   -2.3652 O.2       0 UNK        -0.5197 
      4 N          29.2021    0.8141   -1.2348 N.am      1 UNK        -0.4892 
      5 CA         28.7411    0.0348   -2.3888 C.3       1 UNK         0.0835 
      6 C6         28.9559   -1.4860   -2.1834 C.3       12 UNK        -0.0855 
      7 S7         30.7155   -1.8756   -1.8823 S.3       12 UNK        -0.2931 
      8 C8         30.8276   -3.6352   -2.3261 C.3       12 UNK         0.0378 
      9 C9         30.6278   -3.8735   -3.8155 C.ar      12 UNK        -0.0802 
     10 C10        31.5742   -3.4234   -4.7420 C.ar      12 UNK        -0.0944 
     11 C11        31.4002   -3.6670   -6.1080 C.ar      12 UNK        -0.0787 
     12 C12        30.2659   -4.3602   -6.5449 C.ar      12 UNK        -0.0862 
     13 C13        29.3128   -4.8146   -5.6278 C.ar      12 UNK        -0.0733 
     14 C14        29.5055   -4.5736   -4.2643 C.ar      12 UNK        -0.0832 
     15 C15        28.0930   -5.5951   -6.1035 C.3       12 UNK         0.0240 
     16 S16        26.5307   -4.8863   -5.4893 S.3       12 UNK        -0.2522 
     17 C17        26.4343   -3.3277   -6.4329 C.3       12 UNK        -0.0967 
     18 CA         25.1195   -3.2331   -7.2452 C.3       5 UNK         0.0660 
     19 N          23.9320   -3.3141   -6.3876 N.am      5 UNK        -0.4015 
     20 C          22.7313   -3.7483   -6.7976 C.2       4 UNK         0.4946 
     21 O          22.5103   -4.1663   -7.9351 O.2       4 UNK        -0.5353 
     22 CA         21.5694   -3.7070   -5.7853 C.3       4 UNK         0.0277 
     23 CB         21.3466   -5.0987   -5.1708 C.3       4 UNK        -0.1981 
     24 N          21.7372   -2.7275   -4.7069 N.am      4 UNK        -0.4209 
     25 C          21.8222   -1.4009   -4.8743 C.2       3 UNK         0.4942 
     26 O          21.7604   -0.8481   -5.9742 O.2       3 UNK        -0.5208 
     27 CA         22.0725   -0.5372   -3.6217 C.3       3 UNK         0.0250 
     28 CB         22.1851   -1.3372   -2.3028 C.3       3 UNK        -0.1990 
     29 N          23.2508    0.3197   -3.8016 N.am      3 UNK        -0.4232 
     30 C          24.4940   -0.0816   -4.1082 C.2       2 UNK         0.4993 
     31 O          24.8119   -1.2642   -4.2575 O.2       2 UNK        -0.5286 
     32 CA         25.5482    1.0159   -4.3472 C.3       2 UNK         0.0209 
     33 CB         25.1644    2.4103   -3.7998 C.3       2 UNK        -0.1931 
     34 N          26.8838    0.6229   -3.8867 N.am      2 UNK        -0.4546 
     35 C          27.2563    0.3676   -2.6249 C.2       1 UNK         0.5154 
     36 O          26.4894    0.4034   -1.6579 O.2       1 UNK        -0.5181 
     37 C          25.1141   -1.9632   -8.1204 C.2       5 UNK         0.5014 
     38 O          25.8620   -1.9204   -9.0986 O.2       5 UNK        -0.5248 
     39 N          24.2951   -0.9588   -7.7625 N.am      6 UNK        -0.4434 
     40 CA         24.1129    0.3608   -8.3848 C.3       6 UNK         0.0363 
     41 CB         23.5821    0.2379   -9.8260 C.3       6 UNK        -0.1936 
     42 C          25.3482    1.2787   -8.3205 C.2       6 UNK         0.5081 
     43 O          25.2223    2.4265   -7.8936 O.2       6 UNK        -0.5248 
     44 N          26.5124    0.7672   -8.7309 N.am      7 UNK        -0.4718 
     45 CA         27.8067    1.4428   -8.6728 C.3       7 UNK         0.0273 
     46 CB         28.8037    0.6794   -9.5604 C.3       7 UNK        -0.1935 
     47 C          28.3419    1.5271   -7.2350 C.2       7 UNK         0.5018 
     48 O          28.1105    0.6167   -6.4340 O.2       7 UNK        -0.5186 
     49 N          29.0903    2.6001   -6.9508 N.am      8 UNK        -0.4240 
     50 CA         29.8644    2.7628   -5.7182 C.3       8 UNK         0.0235 
     51 CB         30.3563    4.2166   -5.6240 C.3       8 UNK        -0.2000 
     52 C          31.0519    1.7836   -5.6708 C.2       8 UNK         0.4941 
     53 O          31.4672    1.2884   -6.7187 O.2       8 UNK        -0.5273 
     54 N          31.5849    1.5557   -4.4613 N.am      9 UNK        -0.4262 
     55 CA         32.6156    0.5613   -4.1196 C.3       9 UNK         0.0264 
     56 CB         33.0693    0.7811   -2.6669 C.3       9 UNK        -0.1955 
     57 C          33.8486    0.5098   -5.0402 C.2       9 UNK         0.5031 
     58 O          34.3703   -0.5779   -5.2929 O.2       9 UNK        -0.5390 
     59 N          34.2825    1.6720   -5.5437 N.am      10 UNK        -0.4204 
     60 CA         35.3380    1.8107   -6.5474 C.3       10 UNK         0.0237 
     61 CB         35.9580    3.2159   -6.4256 C.3       10 UNK        -0.1985 
     62 C          34.7942    1.5171   -7.9608 C.2       10 UNK         0.4970 
     63 O          34.7684    2.4140   -8.8065 O.2       10 UNK        -0.4914 
     64 N          34.3450    0.2743   -8.1779 N.am      11 UNK        -0.4285 
     65 CA         33.7999   -0.2276   -9.4482 C.3       11 UNK         0.1007 
     66 C          34.8232   -0.1553  -10.6159 C.2       11 UNK         0.5703 
     67 N          34.3672    0.1471  -11.8241 N.am      11 UNK        -0.7361 
     68 O          36.0135   -0.4152  -10.4445 O.2       11 UNK        -0.4986 
     69 C69        33.2526   -1.6725   -9.3098 C.3       12 UNK        -0.0947 
     70 S70        31.8811   -1.8168   -8.1155 S.3       12 UNK        -0.2240 
     71 C71        32.4538   -3.2192   -7.1106 C.3       12 UNK         0.0194 
     72 H72        31.1324    2.9580    0.0488 H         1 UNK         0.0906 
     73 H73        29.5131    3.6612    0.1038 H         1 UNK         0.0906 
     74 H74        29.8266    2.1039    0.8746 H         1 UNK         0.0906 
     75 H75        29.0095    0.3999   -0.3341 H         1 UNK         0.3140 
     76 H76        29.3060    0.3302   -3.2753 H         1 UNK         0.1085 
     77 H77        28.6128   -2.0322   -3.0640 H         1 UNK         0.0836 
     78 H78        28.3686   -1.8559   -1.3407 H         1 UNK         0.0836 
     79 H79        31.8118   -4.0070   -2.0377 H         1 UNK         0.0731 
     80 H80        30.1036   -4.1986   -1.7352 H         1 UNK         0.0731 
     81 H81        32.4501   -2.8907   -4.3963 H         1 UNK         0.1312 
     82 H82        30.1339   -4.5511   -7.6012 H         1 UNK         0.1406 
     83 H83        28.7749   -4.9332   -3.5522 H         1 UNK         0.1631 
     84 H84        28.1753   -6.6225   -5.7468 H         1 UNK         0.0717 
     85 H85        28.0578   -5.6489   -7.1928 H         1 UNK         0.0717 
     86 H86        27.2973   -3.2563   -7.0983 H         1 UNK         0.0934 
     87 H87        26.5312   -2.4935   -5.7364 H         1 UNK         0.0934 
     88 H88        25.1015   -4.0807   -7.9342 H         1 UNK         0.0739 
     89 H89        24.0455   -2.9668   -5.4421 H         1 UNK         0.3093 
     90 H90        20.6706   -3.4308   -6.3409 H         1 UNK         0.0818 
     91 H91        20.4690   -5.1132   -4.5243 H         1 UNK         0.0819 
     92 H92        21.1851   -5.8472   -5.9481 H         1 UNK         0.0819 
     93 H93        22.2059   -5.4223   -4.5817 H         1 UNK         0.0819 
     94 H94        21.8226   -3.0949   -3.7700 H         1 UNK         0.3041 
     95 H95        21.2119    0.1276   -3.5353 H         1 UNK         0.0784 
     96 H96        21.2757   -1.9051   -2.1019 H         1 UNK         0.0793 
     97 H97        23.0239   -2.0345   -2.3114 H         1 UNK         0.0793 
     98 H98        22.3304   -0.6672   -1.4552 H         1 UNK         0.0793 
     99 H99        23.0800    1.3132   -3.7353 H         1 UNK         0.3024 
    100 H100       25.6284    1.1058   -5.4299 H         1 UNK         0.1171 
    101 H101       25.9664    3.1292   -3.9696 H         1 UNK         0.0786 
    102 H102       24.9620    2.3892   -2.7282 H         1 UNK         0.0786 
    103 H103       24.2803    2.8063   -4.3008 H         1 UNK         0.0786 
    104 H104       27.5576    0.5146   -4.6426 H         1 UNK         0.2977 
    105 H105       23.7010   -1.1164   -6.9565 H         1 UNK         0.3127 
    106 H106       23.3344    0.8491   -7.7959 H         1 UNK         0.0770 
    107 H107       24.3027   -0.2400  -10.4901 H         1 UNK         0.0814 
    108 H108       23.3616    1.2213  -10.2432 H         1 UNK         0.0814 
    109 H109       22.6600   -0.3424   -9.8589 H         1 UNK         0.0814 
    110 H110       26.5117   -0.2113   -9.0111 H         1 UNK         0.2983 
    111 H111       27.6836    2.4542   -9.0665 H         1 UNK         0.0947 
    112 H112       29.7842    1.1580   -9.5515 H         1 UNK         0.0806 
    113 H113       28.4683    0.6425  -10.5969 H         1 UNK         0.0806 
    114 H114       28.9437   -0.3462   -9.2148 H         1 UNK         0.0806 
    115 H115       29.2653    3.2757   -7.6799 H         1 UNK         0.3000 
    116 H116       29.2033    2.5555   -4.8745 H         1 UNK         0.0850 
    117 H117       30.8874    4.3896   -4.6869 H         1 UNK         0.0810 
    118 H118       29.5238    4.9198   -5.6536 H         1 UNK         0.0810 
    119 H119       31.0383    4.4666   -6.4378 H         1 UNK         0.0810 
    120 H120       31.1470    2.0267   -3.6711 H         1 UNK         0.3040 
    121 H121       32.1329   -0.4151   -4.1848 H         1 UNK         0.0766 
    122 H122       33.8175    0.0427   -2.3749 H         1 UNK         0.0812 
    123 H123       33.5101    1.7686   -2.5261 H         1 UNK         0.0812 
    124 H124       32.2396    0.6832   -1.9689 H         1 UNK         0.0812 
    125 H125       33.7587    2.5051   -5.3190 H         1 UNK         0.3205 
    126 H126       36.1256    1.0822   -6.3428 H         1 UNK         0.0754 
    127 H127       36.7664    3.3493   -7.1458 H         1 UNK         0.0769 
    128 H128       36.3806    3.3777   -5.4337 H         1 UNK         0.0769 
    129 H129       35.2235    4.0012   -6.6093 H         1 UNK         0.0769 
    130 H130       34.3547   -0.3771   -7.4025 H         1 UNK         0.2981 
    131 H131       32.9620    0.4250   -9.7018 H         1 UNK         0.0541 
    132 H132       33.3913    0.3479  -11.9782 H         1 UNK         0.3459 
    133 H133       35.0137    0.1824  -12.5968 H         1 UNK         0.3459 
    134 H134       34.0588   -2.3533   -9.0299 H         1 UNK         0.0612 
    135 H135       32.8751   -2.0300  -10.2697 H         1 UNK         0.0612 
    136 H136       32.7014   -4.0554   -7.7660 H         1 UNK         0.0624 
    137 H137       33.3770   -2.9379   -6.6014 H         1 UNK         0.0624 
@<TRIPOS>BOND
     1    1    2 1    
     2    1   72 1    
     3    1   73 1    
     4    1   74 1    
     5    2    3 2    
     6    2    4 am   BACKBONE|DICT|INTERRES
     7    4    5 1    
     8    4   75 1    
     9    5    6 1    
    10    5   35 1    
    11    5   76 1    
    12    6    7 1    
    13    6   77 1    
    14    6   78 1    
    15    7    8 1    
    16    8    9 1    
    17    8   79 1    
    18    8   80 1    
    19    9   10 ar   
    20    9   14 ar   
    21   10   11 ar   
    22   10   81 1    
    23   11   12 ar   
    24   11   71 1    
    25   12   13 ar   
    26   12   82 1    
    27   13   14 ar   
    28   13   15 1    
    29   14   83 1    
    30   15   16 1    
    31   15   84 1    
    32   15   85 1    
    33   16   17 1    
    34   17   18 1    
    35   17   86 1    
    36   17   87 1    
    37   18   19 1    
    38   18   37 1    
    39   18   88 1    
    40   19   20 am   BACKBONE|DICT|INTERRES
    41   19   89 1    
    42   20   21 2    
    43   20   22 1    
    44   22   23 1    
    45   22   24 1    
    46   22   90 1    
    47   23   91 1    
    48   23   92 1    
    49   23   93 1    
    50   24   25 am   BACKBONE|DICT|INTERRES
    51   24   94 1    
    52   25   26 2    
    53   25   27 1    
    54   27   28 1    
    55   27   29 1    
    56   27   95 1    
    57   28   96 1    
    58   28   97 1    
    59   28   98 1    
    60   29   30 am   BACKBONE|DICT|INTERRES
    61   29   99 1    
    62   30   31 2    
    63   30   32 1    
    64   32   33 1    
    65   32   34 1    
    66   32  100 1    
    67   33  101 1    
    68   33  102 1    
    69   33  103 1    
    70   34   35 am   BACKBONE|DICT|INTERRES
    71   34  104 1    
    72   35   36 2    
    73   37   38 2    
    74   37   39 am   BACKBONE|DICT|INTERRES
    75   39   40 1    
    76   39  105 1    
    77   40   41 1    
    78   40   42 1    
    79   40  106 1    
    80   41  107 1    
    81   41  108 1    
    82   41  109 1    
    83   42   43 2    
    84   42   44 am   BACKBONE|DICT|INTERRES
    85   44   45 1    
    86   44  110 1    
    87   45   46 1    
    88   45   47 1    
    89   45  111 1    
    90   46  112 1    
    91   46  113 1    
    92   46  114 1    
    93   47   48 2    
    94   47   49 am   BACKBONE|DICT|INTERRES
    95   49   50 1    
    96   49  115 1    
    97   50   51 1    
    98   50   52 1    
    99   50  116 1    
   100   51  117 1    
   101   51  118 1    
   102   51  119 1    
   103   52   53 2    
   104   52   54 am   BACKBONE|DICT|INTERRES
   105   54   55 1    
   106   54  120 1    
   107   55   56 1    
   108   55   57 1    
   109   55  121 1    
   110   56  122 1    
   111   56  123 1    
   112   56  124 1    
   113   57   58 2    
   114   57   59 am   BACKBONE|DICT|INTERRES
   115   59   60 1    
   116   59  125 1    
   117   60   61 1    
   118   60   62 1    
   119   60  126 1    
   120   61  127 1    
   121   61  128 1    
   122   61  129 1    
   123   62   63 2    
   124   62   64 am   BACKBONE|DICT|INTERRES
   125   64   65 1    
   126   64  130 1    
   127   65   66 1    
   128   65   69 1    
   129   65  131 1    
   130   66   67 am   BACKBONE|DICT|INTERRES
   131   66   68 2    
   132   67  132 1    
   133   67  133 1    
   134   69   70 1    
   135   69  134 1    
   136   69  135 1    
   137   70   71 1    
   138   71  136 1    
   139   71  137 1    
@<TRIPOS>SUBSTRUCTURE
     1 UNK         1 GROUP             0       ****    0 ROOT    
