@<TRIPOS>MOLECULE
3R137
137   139    1
SMALL
USER_CHARGES


@<TRIPOS>ATOM
      1 CA         28.2449   -4.0818    1.8521 C.3       0 UNK        -0.2020 
      2 C          28.0819   -2.6924    1.2543 C.2       0 UNK         0.4855 
      3 O          27.5414   -1.8031    1.9122 O.2       0 UNK        -0.5197 
      4 N          28.5486   -2.5000    0.0133 N.am      1 UNK        -0.4892 
      5 CA         28.4692   -1.2329   -0.7281 C.3       1 UNK         0.0835 
      6 C6         29.3912   -1.2213   -1.9729 C.3       12 UNK        -0.0855 
      7 S7         31.1579   -1.4141   -1.5495 S.3       12 UNK        -0.2931 
      8 C8         31.4446   -3.1985   -1.7894 C.3       12 UNK         0.0378 
      9 C9         31.6999   -3.5717   -3.2439 C.ar      12 UNK        -0.0802 
     10 C10        33.0095   -3.6155   -3.7361 C.ar      12 UNK        -0.0944 
     11 C11        33.2653   -4.0447   -5.0425 C.ar      12 UNK        -0.0787 
     12 C12        32.1932   -4.3930   -5.8704 C.ar      12 UNK        -0.0862 
     13 C13        30.8789   -4.3405   -5.3955 C.ar      12 UNK        -0.0733 
     14 C14        30.6391   -3.9406   -4.0785 C.ar      12 UNK        -0.0832 
     15 C15        29.7265   -4.7595   -6.2957 C.3       12 UNK         0.0240 
     16 S16        29.1006   -3.3567   -7.2683 S.3       12 UNK        -0.2522 
     17 C17        27.6035   -2.8655   -6.3436 C.3       12 UNK        -0.0967 
     18 CA         26.6947   -1.9538   -7.2091 C.3       5 UNK         0.0660 
     19 N          25.2887   -2.0057   -6.8075 N.am      5 UNK        -0.4015 
     20 C          24.2634   -1.9531   -7.6715 C.2       4 UNK         0.4946 
     21 O          24.3936   -1.9686   -8.8962 O.2       4 UNK        -0.5353 
     22 CA         22.8437   -1.8548   -7.0841 C.3       4 UNK         0.0277 
     23 CB         22.2353   -3.2562   -6.9127 C.3       4 UNK        -0.1981 
     24 N          22.7751   -1.1382   -5.8092 N.am      4 UNK        -0.4209 
     25 C          23.1113    0.1468   -5.6274 C.2       3 UNK         0.4942 
     26 O          23.5119    0.8909   -6.5219 O.2       3 UNK        -0.5208 
     27 CA         23.0370    0.6759   -4.1865 C.3       3 UNK         0.0250 
     28 CB         21.6162    1.1715   -3.8732 C.3       3 UNK        -0.1990 
     29 N          23.4589   -0.2833   -3.1575 N.am      3 UNK        -0.4232 
     30 C          24.6128   -0.9671   -3.1310 C.2       2 UNK         0.4993 
     31 O          25.4465   -0.9672   -4.0430 O.2       2 UNK        -0.5286 
     32 CA         24.8391   -1.8499   -1.8934 C.3       2 UNK         0.0209 
     33 CB         24.3142   -3.2705   -2.1579 C.3       2 UNK        -0.1931 
     34 N          26.2472   -1.9311   -1.4998 N.am      2 UNK        -0.4546 
     35 C          27.0183   -0.8963   -1.1307 C.2       1 UNK         0.5154 
     36 O          26.6261    0.2701   -1.0710 O.2       1 UNK        -0.5181 
     37 C          27.1838   -0.4957   -7.2205 C.2       5 UNK         0.5014 
     38 O          27.8474   -0.0954   -8.1754 O.2       5 UNK        -0.5248 
     39 N          26.8428    0.2822   -6.1789 N.am      6 UNK        -0.4434 
     40 CA         27.2862    1.6688   -5.9897 C.3       6 UNK         0.0363 
     41 CB         26.7620    2.2136   -4.6543 C.3       6 UNK        -0.1936 
     42 C          26.9151    2.6080   -7.1493 C.2       6 UNK         0.5081 
     43 O          27.7432    3.4305   -7.5412 O.2       6 UNK        -0.5248 
     44 N          25.7203    2.4228   -7.7289 N.am      7 UNK        -0.4718 
     45 CA         25.2509    3.1331   -8.9246 C.3       7 UNK         0.0273 
     46 CB         23.7717    2.7904   -9.1638 C.3       7 UNK        -0.1935 
     47 C          26.0762    2.8521  -10.1971 C.2       7 UNK         0.5018 
     48 O          26.0273    3.6571  -11.1277 O.2       7 UNK        -0.5186 
     49 N          26.8198    1.7380  -10.2165 N.am      8 UNK        -0.4240 
     50 CA         27.7270    1.3360  -11.2921 C.3       8 UNK         0.0235 
     51 CB         27.4354   -0.1332  -11.6508 C.3       8 UNK        -0.2000 
     52 C          29.2068    1.5360  -10.9044 C.2       8 UNK         0.4941 
     53 O          30.0724    1.0474  -11.6314 O.2       8 UNK        -0.5273 
     54 N          29.4671    2.2468   -9.7927 N.am      9 UNK        -0.4262 
     55 CA         30.7592    2.4840   -9.1394 C.3       9 UNK         0.0264 
     56 CB         31.7670    3.1834  -10.0765 C.3       9 UNK        -0.1955 
     57 C          31.3210    1.1905   -8.5239 C.2       9 UNK         0.5031 
     58 O          32.0397    0.4418   -9.1906 O.2       9 UNK        -0.5390 
     59 N          30.9891    0.9589   -7.2469 N.am      10 UNK        -0.4204 
     60 CA         31.4013   -0.1993   -6.4475 C.3       10 UNK         0.0237 
     61 CB         30.4858   -0.3139   -5.2172 C.3       10 UNK        -0.1985 
     62 C          32.8881   -0.1458   -6.0487 C.2       10 UNK         0.4970 
     63 O          33.2066    0.0397   -4.8730 O.2       10 UNK        -0.4914 
     64 N          33.7667   -0.2887   -7.0462 N.am      11 UNK        -0.4285 
     65 CA         35.2311   -0.3719   -6.9148 C.3       11 UNK         0.1007 
     66 C          35.9250    0.9296   -6.4062 C.2       11 UNK         0.5703 
     67 N          35.2717    2.0853   -6.4425 N.am      11 UNK        -0.7361 
     68 O          37.0876    0.9047   -6.0081 O.2       11 UNK        -0.4986 
     69 C69        35.6855   -1.6452   -6.1432 C.3       12 UNK        -0.0947 
     70 S70        35.1199   -3.1785   -6.9545 S.3       12 UNK        -0.2240 
     71 C71        34.6984   -4.2293   -5.5293 C.3       12 UNK         0.0194 
     72 H72        27.2693   -4.5026    2.0942 H         1 UNK         0.0906 
     73 H73        28.8299   -4.0285    2.7700 H         1 UNK         0.0906 
     74 H74        28.7490   -4.7653    1.1691 H         1 UNK         0.0906 
     75 H75        28.9990   -3.2639   -0.4669 H         1 UNK         0.3140 
     76 H76        28.8016   -0.4371   -0.0572 H         1 UNK         0.1085 
     77 H77        29.2932   -0.2677   -2.4956 H         1 UNK         0.0836 
     78 H78        29.0893   -1.9825   -2.6913 H         1 UNK         0.0836 
     79 H79        32.3058   -3.4881   -1.1853 H         1 UNK         0.0731 
     80 H80        30.6058   -3.7725   -1.3966 H         1 UNK         0.0731 
     81 H81        33.8333   -3.3537   -3.0861 H         1 UNK         0.1312 
     82 H82        32.3862   -4.7292   -6.8802 H         1 UNK         0.1406 
     83 H83        29.6258   -3.9347   -3.7035 H         1 UNK         0.1631 
     84 H84        28.9241   -5.2094   -5.7095 H         1 UNK         0.0717 
     85 H85        30.0637   -5.5352   -6.9850 H         1 UNK         0.0717 
     86 H86        27.0621   -3.7765   -6.0837 H         1 UNK         0.0934 
     87 H87        27.8793   -2.3978   -5.3963 H         1 UNK         0.0934 
     88 H88        26.7623   -2.3145   -8.2383 H         1 UNK         0.0739 
     89 H89        25.1012   -1.9238   -5.8144 H         1 UNK         0.3093 
     90 H90        22.2342   -1.3019   -7.8023 H         1 UNK         0.0818 
     91 H91        22.2510   -3.8058   -7.8550 H         1 UNK         0.0819 
     92 H92        22.7847   -3.8495   -6.1806 H         1 UNK         0.0819 
     93 H93        21.1952   -3.2016   -6.5904 H         1 UNK         0.0819 
     94 H94        22.4617   -1.6644   -5.0068 H         1 UNK         0.3041 
     95 H95        23.7066    1.5323   -4.1177 H         1 UNK         0.0784 
     96 H96        21.2846    1.9002   -4.6147 H         1 UNK         0.0793 
     97 H97        20.8925    0.3554   -3.8725 H         1 UNK         0.0793 
     98 H98        21.5711    1.6619   -2.9005 H         1 UNK         0.0793 
     99 H99        22.8335   -0.3787   -2.3700 H         1 UNK         0.3024 
    100 H100       24.2914   -1.4196   -1.0520 H         1 UNK         0.1171 
    101 H101       23.2553   -3.2571   -2.4201 H         1 UNK         0.0786 
    102 H102       24.8471   -3.7505   -2.9801 H         1 UNK         0.0786 
    103 H103       24.4174   -3.9032   -1.2760 H         1 UNK         0.0786 
    104 H104       26.6650   -2.8491   -1.5109 H         1 UNK         0.2977 
    105 H105       26.2991   -0.1262   -5.4201 H         1 UNK         0.3127 
    106 H106       28.3746    1.6466   -5.9312 H         1 UNK         0.0770 
    107 H107       25.6836    2.3555   -4.6779 H         1 UNK         0.0814 
    108 H108       27.2086    3.1831   -4.4302 H         1 UNK         0.0814 
    109 H109       26.9993    1.5465   -3.8248 H         1 UNK         0.0814 
    110 H110       25.0799    1.7421   -7.3261 H         1 UNK         0.2983 
    111 H111       25.3269    4.2040   -8.7244 H         1 UNK         0.0947 
    112 H112       23.6296    1.7220   -9.3329 H         1 UNK         0.0806 
    113 H113       23.3815    3.3159  -10.0365 H         1 UNK         0.0806 
    114 H114       23.1557    3.0779   -8.3115 H         1 UNK         0.0806 
    115 H115       26.8475    1.1500   -9.3884 H         1 UNK         0.3000 
    116 H116       27.5491    1.9425  -12.1825 H         1 UNK         0.0850 
    117 H117       28.0374   -0.4587  -12.5001 H         1 UNK         0.0810 
    118 H118       26.3897   -0.2748  -11.9242 H         1 UNK         0.0810 
    119 H119       27.6571   -0.8021  -10.8182 H         1 UNK         0.0810 
    120 H120       28.6693    2.5888   -9.2685 H         1 UNK         0.3040 
    121 H121       30.5555    3.1791   -8.3230 H         1 UNK         0.0766 
    122 H122       32.0668    2.5490  -10.9108 H         1 UNK         0.0812 
    123 H123       32.6759    3.4483   -9.5352 H         1 UNK         0.0812 
    124 H124       31.3532    4.1041  -10.4874 H         1 UNK         0.0812 
    125 H125       30.4176    1.6419   -6.7736 H         1 UNK         0.3205 
    126 H126       31.2607   -1.1012   -7.0474 H         1 UNK         0.0754 
    127 H127       30.7988   -1.1450   -4.5864 H         1 UNK         0.0769 
    128 H128       29.4559   -0.5090   -5.5019 H         1 UNK         0.0769 
    129 H129       30.5084    0.5873   -4.6036 H         1 UNK         0.0769 
    130 H130       33.3960   -0.3324   -7.9909 H         1 UNK         0.2981 
    131 H131       35.5963   -0.4754   -7.9370 H         1 UNK         0.0541 
    132 H132       34.3200    2.1214   -6.7679 H         1 UNK         0.3459 
    133 H133       35.7322    2.9230   -6.1237 H         1 UNK         0.3459 
    134 H134       35.3282   -1.6172   -5.1127 H         1 UNK         0.0612 
    135 H135       36.7739   -1.6984   -6.0873 H         1 UNK         0.0612 
    136 H136       34.8272   -5.2711   -5.8256 H         1 UNK         0.0624 
    137 H137       35.4149   -4.0561   -4.7248 H         1 UNK         0.0624 
@<TRIPOS>BOND
     1    1    2 1    
     2    1   72 1    
     3    1   73 1    
     4    1   74 1    
     5    2    3 2    
     6    2    4 am   BACKBONE|DICT|INTERRES
     7    4    5 1    
     8    4   75 1    
     9    5    6 1    
    10    5   35 1    
    11    5   76 1    
    12    6    7 1    
    13    6   77 1    
    14    6   78 1    
    15    7    8 1    
    16    8    9 1    
    17    8   79 1    
    18    8   80 1    
    19    9   10 ar   
    20    9   14 ar   
    21   10   11 ar   
    22   10   81 1    
    23   11   12 ar   
    24   11   71 1    
    25   12   13 ar   
    26   12   82 1    
    27   13   14 ar   
    28   13   15 1    
    29   14   83 1    
    30   15   16 1    
    31   15   84 1    
    32   15   85 1    
    33   16   17 1    
    34   17   18 1    
    35   17   86 1    
    36   17   87 1    
    37   18   19 1    
    38   18   37 1    
    39   18   88 1    
    40   19   20 am   BACKBONE|DICT|INTERRES
    41   19   89 1    
    42   20   21 2    
    43   20   22 1    
    44   22   23 1    
    45   22   24 1    
    46   22   90 1    
    47   23   91 1    
    48   23   92 1    
    49   23   93 1    
    50   24   25 am   BACKBONE|DICT|INTERRES
    51   24   94 1    
    52   25   26 2    
    53   25   27 1    
    54   27   28 1    
    55   27   29 1    
    56   27   95 1    
    57   28   96 1    
    58   28   97 1    
    59   28   98 1    
    60   29   30 am   BACKBONE|DICT|INTERRES
    61   29   99 1    
    62   30   31 2    
    63   30   32 1    
    64   32   33 1    
    65   32   34 1    
    66   32  100 1    
    67   33  101 1    
    68   33  102 1    
    69   33  103 1    
    70   34   35 am   BACKBONE|DICT|INTERRES
    71   34  104 1    
    72   35   36 2    
    73   37   38 2    
    74   37   39 am   BACKBONE|DICT|INTERRES
    75   39   40 1    
    76   39  105 1    
    77   40   41 1    
    78   40   42 1    
    79   40  106 1    
    80   41  107 1    
    81   41  108 1    
    82   41  109 1    
    83   42   43 2    
    84   42   44 am   BACKBONE|DICT|INTERRES
    85   44   45 1    
    86   44  110 1    
    87   45   46 1    
    88   45   47 1    
    89   45  111 1    
    90   46  112 1    
    91   46  113 1    
    92   46  114 1    
    93   47   48 2    
    94   47   49 am   BACKBONE|DICT|INTERRES
    95   49   50 1    
    96   49  115 1    
    97   50   51 1    
    98   50   52 1    
    99   50  116 1    
   100   51  117 1    
   101   51  118 1    
   102   51  119 1    
   103   52   53 2    
   104   52   54 am   BACKBONE|DICT|INTERRES
   105   54   55 1    
   106   54  120 1    
   107   55   56 1    
   108   55   57 1    
   109   55  121 1    
   110   56  122 1    
   111   56  123 1    
   112   56  124 1    
   113   57   58 2    
   114   57   59 am   BACKBONE|DICT|INTERRES
   115   59   60 1    
   116   59  125 1    
   117   60   61 1    
   118   60   62 1    
   119   60  126 1    
   120   61  127 1    
   121   61  128 1    
   122   61  129 1    
   123   62   63 2    
   124   62   64 am   BACKBONE|DICT|INTERRES
   125   64   65 1    
   126   64  130 1    
   127   65   66 1    
   128   65   69 1    
   129   65  131 1    
   130   66   67 am   BACKBONE|DICT|INTERRES
   131   66   68 2    
   132   67  132 1    
   133   67  133 1    
   134   69   70 1    
   135   69  134 1    
   136   69  135 1    
   137   70   71 1    
   138   71  136 1    
   139   71  137 1    
@<TRIPOS>SUBSTRUCTURE
     1 UNK         1 GROUP             0       ****    0 ROOT    
