@<TRIPOS>MOLECULE
3R137
137   139    1
SMALL
USER_CHARGES


@<TRIPOS>ATOM
      1 CA         26.2371   -9.4021   -2.2820 C.3       0 UNK        -0.2020 
      2 C          26.5226   -8.1556   -1.4582 C.2       0 UNK         0.4855 
      3 O          26.4167   -8.1933   -0.2324 O.2       0 UNK        -0.5197 
      4 N          26.8775   -7.0475   -2.1213 N.am      1 UNK        -0.4892 
      5 CA         27.1882   -5.7523   -1.4994 C.3       1 UNK         0.0835 
      6 C6         28.1957   -4.9384   -2.3503 C.3       12 UNK        -0.0855 
      7 S7         27.6542   -4.6280   -4.0690 S.3       12 UNK        -0.2931 
      8 C8         27.4387   -2.8206   -4.0698 C.3       12 UNK         0.0378 
      9 C9         28.7625   -2.0774   -3.9766 C.ar      12 UNK        -0.0802 
     10 C10        29.5941   -1.9905   -5.0954 C.ar      12 UNK        -0.0944 
     11 C11        30.7885   -1.2674   -5.0401 C.ar      12 UNK        -0.0787 
     12 C12        31.1599   -0.6397   -3.8479 C.ar      12 UNK        -0.0862 
     13 C13        30.3335   -0.7174   -2.7218 C.ar      12 UNK        -0.0733 
     14 C14        29.1382   -1.4408   -2.7905 C.ar      12 UNK        -0.0832 
     15 C15        30.7068    0.0163   -1.4428 C.3       12 UNK         0.0240 
     16 S16        29.5700    1.4002   -1.1080 S.3       12 UNK        -0.2522 
     17 C17        29.8583    2.4878   -2.5476 C.3       12 UNK        -0.0967 
     18 CA         28.8672    2.2383   -3.7193 C.3       5 UNK         0.0660 
     19 N          27.4691    2.3115   -3.2852 N.am      5 UNK        -0.4015 
     20 C          26.4467    1.6800   -3.8727 C.2       4 UNK         0.4946 
     21 O          26.5525    1.0084   -4.9024 O.2       4 UNK        -0.5353 
     22 CA         25.0655    1.8731   -3.2249 C.3       4 UNK         0.0277 
     23 CB         24.3491    3.0822   -3.8492 C.3       4 UNK        -0.1981 
     24 N          24.2245    0.6839   -3.3789 N.am      4 UNK        -0.4209 
     25 C          24.4546   -0.4896   -2.7764 C.2       3 UNK         0.4942 
     26 O          25.3553   -0.6759   -1.9533 O.2       3 UNK        -0.5208 
     27 CA         23.5148   -1.6430   -3.1527 C.3       3 UNK         0.0250 
     28 CB         23.6738   -2.0590   -4.6302 C.3       3 UNK        -0.1990 
     29 N          23.7794   -2.7786   -2.2717 N.am      3 UNK        -0.4232 
     30 C          22.9623   -3.8143   -2.0597 C.2       2 UNK         0.4993 
     31 O          21.8792   -3.9538   -2.6320 O.2       2 UNK        -0.5286 
     32 CA         23.4390   -4.8709   -1.0457 C.3       2 UNK         0.0209 
     33 CB         22.4281   -6.0200   -0.8648 C.3       2 UNK        -0.1931 
     34 N          24.7334   -5.4447   -1.4213 N.am      2 UNK        -0.4546 
     35 C          25.9330   -4.9336   -1.1122 C.2       1 UNK         0.5154 
     36 O          26.0687   -3.8572   -0.5286 O.2       1 UNK        -0.5181 
     37 C          29.1251    3.1810   -4.9131 C.2       5 UNK         0.5014 
     38 O          29.9119    4.1226   -4.7960 O.2       5 UNK        -0.5248 
     39 N          28.4442    2.9306   -6.0354 N.am      6 UNK        -0.4434 
     40 CA         28.5586    3.6881   -7.2758 C.3       6 UNK         0.0363 
     41 CB         27.6757    4.9474   -7.2062 C.3       6 UNK        -0.1936 
     42 C          28.1343    2.7983   -8.4456 C.2       6 UNK         0.5081 
     43 O          27.2140    1.9921   -8.2948 O.2       6 UNK        -0.5248 
     44 N          28.7836    2.9977   -9.5988 N.am      7 UNK        -0.4718 
     45 CA         28.4857    2.4627  -10.9352 C.3       7 UNK         0.0273 
     46 CB         27.0932    2.9143  -11.4165 C.3       7 UNK        -0.1935 
     47 C          28.6559    0.9440  -11.1171 C.2       7 UNK         0.5018 
     48 O          29.1978    0.5435  -12.1480 O.2       7 UNK        -0.5186 
     49 N          28.2165    0.1397  -10.1378 N.am      8 UNK        -0.4240 
     50 CA         28.1227   -1.3300  -10.1552 C.3       8 UNK         0.0235 
     51 CB         27.7362   -1.8254   -8.7519 C.3       8 UNK        -0.2000 
     52 C          29.3749   -2.0672  -10.6661 C.2       8 UNK         0.4941 
     53 O          29.2494   -3.0195  -11.4371 O.2       8 UNK        -0.5273 
     54 N          30.5504   -1.5742  -10.2690 N.am      9 UNK        -0.4262 
     55 CA         31.8533   -1.9123  -10.8366 C.3       9 UNK         0.0264 
     56 CB         32.5086   -3.0369  -10.0121 C.3       9 UNK        -0.1955 
     57 C          32.6920   -0.6261  -10.8880 C.2       9 UNK         0.5031 
     58 O          33.8335   -0.6162  -10.4224 O.2       9 UNK        -0.5390 
     59 N          32.0702    0.4651  -11.3675 N.am      10 UNK        -0.4204 
     60 CA         32.4902    1.8745  -11.2876 C.3       10 UNK         0.0237 
     61 CB         33.8367    2.1281  -11.9943 C.3       10 UNK        -0.1985 
     62 C          32.4869    2.4125   -9.8438 C.2       10 UNK         0.4970 
     63 O          31.7926    3.3907   -9.5647 O.2       10 UNK        -0.4914 
     64 N          33.2182    1.7254   -8.9589 N.am      11 UNK        -0.4285 
     65 CA         33.2468    1.8840   -7.4949 C.3       11 UNK         0.1007 
     66 C          33.9136    3.1944   -6.9794 C.2       11 UNK         0.5703 
     67 N          34.5869    3.9712   -7.8196 N.am      11 UNK        -0.7361 
     68 O          33.8565    3.4940   -5.7893 O.2       11 UNK        -0.4986 
     69 C69        31.8702    1.6109   -6.8195 C.3       12 UNK        -0.0947 
     70 S70        31.0403    0.1014   -7.4237 S.3       12 UNK        -0.2240 
     71 C71        31.6641   -1.1643   -6.2774 C.3       12 UNK         0.0194 
     72 H72        26.3628   -9.2236   -3.3499 H         1 UNK         0.0906 
     73 H73        26.9127  -10.2062   -1.9914 H         1 UNK         0.0906 
     74 H74        25.2145   -9.7383   -2.1123 H         1 UNK         0.0906 
     75 H75        26.9493   -7.0628   -3.1302 H         1 UNK         0.3140 
     76 H76        27.6872   -5.9578   -0.5493 H         1 UNK         0.1085 
     77 H77        29.1396   -5.4832   -2.4030 H         1 UNK         0.0836 
     78 H78        28.4408   -3.9997   -1.8524 H         1 UNK         0.0836 
     79 H79        26.7732   -2.5365   -3.2544 H         1 UNK         0.0731 
     80 H80        26.9402   -2.5256   -4.9937 H         1 UNK         0.0731 
     81 H81        29.3034   -2.4786   -6.0150 H         1 UNK         0.1312 
     82 H82        32.0805   -0.0741   -3.8037 H         1 UNK         0.1406 
     83 H83        28.4865   -1.4812   -1.9274 H         1 UNK         0.1631 
     84 H84        31.7302    0.3919   -1.4881 H         1 UNK         0.0717 
     85 H85        30.6719   -0.6817   -0.6051 H         1 UNK         0.0717 
     86 H86        29.7818    3.5192   -2.1976 H         1 UNK         0.0934 
     87 H87        30.8886    2.3637   -2.8867 H         1 UNK         0.0934 
     88 H88        29.0464    1.2307   -4.0960 H         1 UNK         0.0739 
     89 H89        27.2955    2.8644   -2.4588 H         1 UNK         0.3093 
     90 H90        25.1995    2.0562   -2.1563 H         1 UNK         0.0818 
     91 H91        24.9354    3.9935   -3.7230 H         1 UNK         0.0819 
     92 H92        24.1876    2.9464   -4.9197 H         1 UNK         0.0819 
     93 H93        23.3797    3.2558   -3.3816 H         1 UNK         0.0819 
     94 H94        23.4843    0.7427   -4.0627 H         1 UNK         0.3041 
     95 H95        22.4920   -1.3001   -2.9824 H         1 UNK         0.0784 
     96 H96        23.5568   -1.2098   -5.3042 H         1 UNK         0.0793 
     97 H97        24.6519   -2.4958   -4.8224 H         1 UNK         0.0793 
     98 H98        22.9238   -2.7960   -4.9173 H         1 UNK         0.0793 
     99 H99        24.6419   -2.7063   -1.7377 H         1 UNK         0.3024 
    100 H100       23.5371   -4.3643   -0.0824 H         1 UNK         0.1171 
    101 H101       22.2707   -6.5708   -1.7931 H         1 UNK         0.0786 
    102 H102       22.7649   -6.7285   -0.1076 H         1 UNK         0.0786 
    103 H103       21.4579   -5.6408   -0.5410 H         1 UNK         0.0786 
    104 H104       24.7140   -6.3141   -1.9341 H         1 UNK         0.2977 
    105 H105       27.7998    2.1417   -6.0605 H         1 UNK         0.3127 
    106 H106       29.5965    3.9924   -7.4242 H         1 UNK         0.0770 
    107 H107       26.6283    4.6936   -7.0371 H         1 UNK         0.0814 
    108 H108       27.7293    5.5146   -8.1363 H         1 UNK         0.0814 
    109 H109       27.9930    5.6130   -6.4034 H         1 UNK         0.0814 
    110 H110       29.5941    3.6069   -9.5704 H         1 UNK         0.2983 
    111 H111       29.2177    2.9298  -11.5963 H         1 UNK         0.0947 
    112 H112       26.9154    2.5987  -12.4455 H         1 UNK         0.0806 
    113 H113       26.9975    3.9998  -11.3907 H         1 UNK         0.0806 
    114 H114       26.2932    2.4928  -10.8069 H         1 UNK         0.0806 
    115 H115       27.7928    0.6104   -9.3397 H         1 UNK         0.3000 
    116 H116       27.3087   -1.5810  -10.8378 H         1 UNK         0.0850 
    117 H117       28.4675   -1.5181   -8.0046 H         1 UNK         0.0810 
    118 H118       27.6701   -2.9139   -8.7204 H         1 UNK         0.0810 
    119 H119       26.7661   -1.4330   -8.4460 H         1 UNK         0.0810 
    120 H120       30.5461   -0.8093   -9.6050 H         1 UNK         0.3040 
    121 H121       31.7328   -2.2545  -11.8667 H         1 UNK         0.0766 
    122 H122       32.6859   -2.7279   -8.9816 H         1 UNK         0.0812 
    123 H123       31.8834   -3.9296   -9.9921 H         1 UNK         0.0812 
    124 H124       33.4707   -3.3237  -10.4383 H         1 UNK         0.0812 
    125 H125       31.1273    0.3321  -11.7262 H         1 UNK         0.3205 
    126 H126       31.7308    2.4370  -11.8329 H         1 UNK         0.0754 
    127 H127       34.0701    3.1935  -12.0104 H         1 UNK         0.0769 
    128 H128       33.8083    1.7878  -13.0294 H         1 UNK         0.0769 
    129 H129       34.6680    1.6242  -11.5008 H         1 UNK         0.0769 
    130 H130       33.7203    0.9180   -9.3192 H         1 UNK         0.2981 
    131 H131       33.9186    1.0957   -7.1547 H         1 UNK         0.0541 
    132 H132       35.0267    4.8093   -7.4738 H         1 UNK         0.3459 
    133 H133       34.6474    3.7320   -8.7958 H         1 UNK         0.3459 
    134 H134       31.2017    2.4481   -7.0077 H         1 UNK         0.0612 
    135 H135       31.9738    1.5486   -5.7354 H         1 UNK         0.0612 
    136 H136       31.6734   -2.1258   -6.7923 H         1 UNK         0.0624 
    137 H137       32.7001   -0.9507   -6.0108 H         1 UNK         0.0624 
@<TRIPOS>BOND
     1    1    2 1    
     2    1   72 1    
     3    1   73 1    
     4    1   74 1    
     5    2    3 2    
     6    2    4 am   BACKBONE|DICT|INTERRES
     7    4    5 1    
     8    4   75 1    
     9    5    6 1    
    10    5   35 1    
    11    5   76 1    
    12    6    7 1    
    13    6   77 1    
    14    6   78 1    
    15    7    8 1    
    16    8    9 1    
    17    8   79 1    
    18    8   80 1    
    19    9   10 ar   
    20    9   14 ar   
    21   10   11 ar   
    22   10   81 1    
    23   11   12 ar   
    24   11   71 1    
    25   12   13 ar   
    26   12   82 1    
    27   13   14 ar   
    28   13   15 1    
    29   14   83 1    
    30   15   16 1    
    31   15   84 1    
    32   15   85 1    
    33   16   17 1    
    34   17   18 1    
    35   17   86 1    
    36   17   87 1    
    37   18   19 1    
    38   18   37 1    
    39   18   88 1    
    40   19   20 am   BACKBONE|DICT|INTERRES
    41   19   89 1    
    42   20   21 2    
    43   20   22 1    
    44   22   23 1    
    45   22   24 1    
    46   22   90 1    
    47   23   91 1    
    48   23   92 1    
    49   23   93 1    
    50   24   25 am   BACKBONE|DICT|INTERRES
    51   24   94 1    
    52   25   26 2    
    53   25   27 1    
    54   27   28 1    
    55   27   29 1    
    56   27   95 1    
    57   28   96 1    
    58   28   97 1    
    59   28   98 1    
    60   29   30 am   BACKBONE|DICT|INTERRES
    61   29   99 1    
    62   30   31 2    
    63   30   32 1    
    64   32   33 1    
    65   32   34 1    
    66   32  100 1    
    67   33  101 1    
    68   33  102 1    
    69   33  103 1    
    70   34   35 am   BACKBONE|DICT|INTERRES
    71   34  104 1    
    72   35   36 2    
    73   37   38 2    
    74   37   39 am   BACKBONE|DICT|INTERRES
    75   39   40 1    
    76   39  105 1    
    77   40   41 1    
    78   40   42 1    
    79   40  106 1    
    80   41  107 1    
    81   41  108 1    
    82   41  109 1    
    83   42   43 2    
    84   42   44 am   BACKBONE|DICT|INTERRES
    85   44   45 1    
    86   44  110 1    
    87   45   46 1    
    88   45   47 1    
    89   45  111 1    
    90   46  112 1    
    91   46  113 1    
    92   46  114 1    
    93   47   48 2    
    94   47   49 am   BACKBONE|DICT|INTERRES
    95   49   50 1    
    96   49  115 1    
    97   50   51 1    
    98   50   52 1    
    99   50  116 1    
   100   51  117 1    
   101   51  118 1    
   102   51  119 1    
   103   52   53 2    
   104   52   54 am   BACKBONE|DICT|INTERRES
   105   54   55 1    
   106   54  120 1    
   107   55   56 1    
   108   55   57 1    
   109   55  121 1    
   110   56  122 1    
   111   56  123 1    
   112   56  124 1    
   113   57   58 2    
   114   57   59 am   BACKBONE|DICT|INTERRES
   115   59   60 1    
   116   59  125 1    
   117   60   61 1    
   118   60   62 1    
   119   60  126 1    
   120   61  127 1    
   121   61  128 1    
   122   61  129 1    
   123   62   63 2    
   124   62   64 am   BACKBONE|DICT|INTERRES
   125   64   65 1    
   126   64  130 1    
   127   65   66 1    
   128   65   69 1    
   129   65  131 1    
   130   66   67 am   BACKBONE|DICT|INTERRES
   131   66   68 2    
   132   67  132 1    
   133   67  133 1    
   134   69   70 1    
   135   69  134 1    
   136   69  135 1    
   137   70   71 1    
   138   71  136 1    
   139   71  137 1    
@<TRIPOS>SUBSTRUCTURE
     1 UNK         1 GROUP             0       ****    0 ROOT    
