@<TRIPOS>MOLECULE
3R137
137   139    1
SMALL
USER_CHARGES


@<TRIPOS>ATOM
      1 CA         28.9549   -2.2042    3.4003 C.3       0 UNK        -0.2020 
      2 C          28.3126   -2.7290    2.1245 C.2       0 UNK         0.4855 
      3 O          27.3225   -3.4581    2.1989 O.2       0 UNK        -0.5197 
      4 N          28.8736   -2.3623    0.9634 N.am      1 UNK        -0.4892 
      5 CA         28.4137   -2.7272   -0.3871 C.3       1 UNK         0.0835 
      6 C6         28.5086   -4.2553   -0.6852 C.3       12 UNK        -0.0855 
      7 S7         30.1917   -4.9091   -0.3847 S.3       12 UNK        -0.2931 
      8 C8         30.7355   -5.4456   -2.0444 C.3       12 UNK         0.0378 
      9 C9         30.6421   -4.3604   -3.1137 C.ar      12 UNK        -0.0802 
     10 C10        31.0810   -3.0551   -2.8652 C.ar      12 UNK        -0.0944 
     11 C11        30.9514   -2.0605   -3.8392 C.ar      12 UNK        -0.0787 
     12 C12        30.4113   -2.3886   -5.0864 C.ar      12 UNK        -0.0862 
     13 C13        30.0065   -3.6986   -5.3626 C.ar      12 UNK        -0.0733 
     14 C14        30.1203   -4.6767   -4.3713 C.ar      12 UNK        -0.0832 
     15 C15        29.4702   -4.0638   -6.7402 C.3       12 UNK         0.0240 
     16 S16        27.7552   -4.6808   -6.7130 S.3       12 UNK        -0.2522 
     17 C17        26.8375   -3.3186   -5.9226 C.3       12 UNK        -0.0967 
     18 CA         26.4273   -2.1986   -6.9150 C.3       5 UNK         0.0660 
     19 N          25.1130   -1.6382   -6.5963 N.am      5 UNK        -0.4015 
     20 C          24.4051   -0.8349   -7.4027 C.2       4 UNK         0.4946 
     21 O          24.7613   -0.5113   -8.5350 O.2       4 UNK        -0.5353 
     22 CA         23.0990   -0.2601   -6.8293 C.3       4 UNK         0.0277 
     23 CB         21.9409   -1.2532   -7.0161 C.3       4 UNK        -0.1981 
     24 N          23.2178    0.1012   -5.4138 N.am      4 UNK        -0.4209 
     25 C          24.0063    1.0834   -4.9537 C.2       3 UNK         0.4942 
     26 O          24.6687    1.8241   -5.6783 O.2       3 UNK        -0.5208 
     27 CA         24.1111    1.2362   -3.4276 C.3       3 UNK         0.0250 
     28 CB         22.9784    2.1292   -2.8963 C.3       3 UNK        -0.1990 
     29 N          24.1202   -0.0368   -2.6965 N.am      3 UNK        -0.4232 
     30 C          25.0305   -1.0081   -2.8545 C.2       2 UNK         0.4993 
     31 O          25.9215   -0.9863   -3.7078 O.2       2 UNK        -0.5286 
     32 CA         24.8951   -2.2337   -1.9364 C.3       2 UNK         0.0209 
     33 CB         24.1169   -3.3541   -2.6449 C.3       2 UNK        -0.1931 
     34 N          26.2040   -2.7436   -1.5174 N.am      2 UNK        -0.4546 
     35 C          27.0343   -2.0909   -0.6908 C.2       1 UNK         0.5154 
     36 O          26.7486   -1.0030   -0.1805 O.2       1 UNK        -0.5181 
     37 C          27.4864   -1.0838   -6.9831 C.2       5 UNK         0.5014 
     38 O          28.2375   -1.0178   -7.9554 O.2       5 UNK        -0.5248 
     39 N          27.4953   -0.2069   -5.9684 N.am      6 UNK        -0.4434 
     40 CA         28.3788    0.9571   -5.8693 C.3       6 UNK         0.0363 
     41 CB         28.1829    1.6256   -4.4997 C.3       6 UNK        -0.1936 
     42 C          28.1945    1.9804   -7.0046 C.2       6 UNK         0.5081 
     43 O          29.1628    2.6438   -7.3725 O.2       6 UNK        -0.5248 
     44 N          26.9698    2.0941   -7.5354 N.am      7 UNK        -0.4718 
     45 CA         26.6532    2.9020   -8.7124 C.3       7 UNK         0.0273 
     46 CB         25.1462    3.2048   -8.7347 C.3       7 UNK        -0.1935 
     47 C          27.0894    2.2266  -10.0243 C.2       7 UNK         0.5018 
     48 O          27.5791    2.9178  -10.9185 O.2       7 UNK        -0.5186 
     49 N          26.8763    0.9069  -10.1326 N.am      8 UNK        -0.4240 
     50 CA         27.1765    0.1141  -11.3268 C.3       8 UNK         0.0235 
     51 CB         26.4320   -1.2297  -11.2568 C.3       8 UNK        -0.2000 
     52 C          28.6804   -0.1135  -11.5458 C.2       8 UNK         0.4941 
     53 O          29.1624    0.0810  -12.6633 O.2       8 UNK        -0.5273 
     54 N          29.3865   -0.5476  -10.4953 N.am      9 UNK        -0.4262 
     55 CA         30.8223   -0.8274  -10.5237 C.3       9 UNK         0.0264 
     56 CB         31.1421   -1.8840   -9.4532 C.3       9 UNK        -0.1955 
     57 C          31.6406    0.4442  -10.2656 C.2       9 UNK         0.5031 
     58 O          31.1401    1.3951   -9.6622 O.2       9 UNK        -0.5390 
     59 N          32.9243    0.4123  -10.6447 N.am      10 UNK        -0.4204 
     60 CA         33.9145    1.4587  -10.3609 C.3       10 UNK         0.0237 
     61 CB         35.0574    1.3572  -11.3892 C.3       10 UNK        -0.1985 
     62 C          34.4185    1.4016   -8.9008 C.2       10 UNK         0.4970 
     63 O          35.6277    1.3769   -8.6643 O.2       10 UNK        -0.4914 
     64 N          33.4784    1.3559   -7.9500 N.am      11 UNK        -0.4285 
     65 CA         33.7262    1.2844   -6.5032 C.3       11 UNK         0.1007 
     66 C          34.1123    2.6503   -5.8589 C.2       11 UNK         0.5703 
     67 N          33.9145    3.7798   -6.5296 N.am      11 UNK        -0.7361 
     68 O          34.6219    2.6885   -4.7419 O.2       11 UNK        -0.4986 
     69 C69        32.5295    0.6016   -5.7853 C.3       12 UNK        -0.0947 
     70 S70        33.0041   -0.2326   -4.2339 S.3       12 UNK        -0.2240 
     71 C71        31.3764   -0.6325   -3.5266 C.3       12 UNK         0.0194 
     72 H72        28.2372   -1.6085    3.9639 H         1 UNK         0.0906 
     73 H73        29.2753   -3.0355    4.0278 H         1 UNK         0.0906 
     74 H74        29.8250   -1.5811    3.1943 H         1 UNK         0.0906 
     75 H75        29.6696   -1.7405    0.9848 H         1 UNK         0.3140 
     76 H76        29.0951   -2.2231   -1.0728 H         1 UNK         0.1085 
     77 H77        27.8084   -4.8151   -0.0630 H         1 UNK         0.0836 
     78 H78        28.2337   -4.4702   -1.7187 H         1 UNK         0.0836 
     79 H79        31.7703   -5.7846   -1.9811 H         1 UNK         0.0731 
     80 H80        30.1436   -6.3168   -2.3296 H         1 UNK         0.0731 
     81 H81        31.5039   -2.8084   -1.9010 H         1 UNK         0.1312 
     82 H82        30.3164   -1.6264   -5.8462 H         1 UNK         0.1406 
     83 H83        29.7976   -5.6870   -4.5850 H         1 UNK         0.1631 
     84 H84        30.1097   -4.8343   -7.1726 H         1 UNK         0.0717 
     85 H85        29.5279   -3.2146   -7.4179 H         1 UNK         0.0717 
     86 H86        25.9438   -3.7852   -5.5076 H         1 UNK         0.0934 
     87 H87        27.3815   -2.9365   -5.0562 H         1 UNK         0.0934 
     88 H88        26.3427   -2.6305   -7.9148 H         1 UNK         0.0739 
     89 H89        24.7819   -1.7848   -5.6543 H         1 UNK         0.3093 
     90 H90        22.8647    0.6477   -7.3899 H         1 UNK         0.0818 
     91 H91        20.9938   -0.8239   -6.6888 H         1 UNK         0.0819 
     92 H92        21.8257   -1.5223   -8.0671 H         1 UNK         0.0819 
     93 H93        22.1020   -2.1771   -6.4592 H         1 UNK         0.0819 
     94 H94        22.6942   -0.4489   -4.7486 H         1 UNK         0.3041 
     95 H95        25.0597    1.7341   -3.2176 H         1 UNK         0.0784 
     96 H96        22.9647    3.0900   -3.4133 H         1 UNK         0.0793 
     97 H97        21.9992    1.6698   -3.0367 H         1 UNK         0.0793 
     98 H98        23.1028    2.3386   -1.8337 H         1 UNK         0.0793 
     99 H99        23.4134   -0.1458   -1.9830 H         1 UNK         0.3024 
    100 H100       24.3455   -1.9412   -1.0385 H         1 UNK         0.1171 
    101 H101       23.1313   -3.0096   -2.9610 H         1 UNK         0.0786 
    102 H102       23.9613   -4.2065   -1.9831 H         1 UNK         0.0786 
    103 H103       24.6380   -3.7122   -3.5324 H         1 UNK         0.0786 
    104 H104       26.5044   -3.6133   -1.9304 H         1 UNK         0.2977 
    105 H105       26.8618   -0.3680   -5.1866 H         1 UNK         0.3127 
    106 H106       29.4039    0.5905   -5.9324 H         1 UNK         0.0770 
    107 H107       27.1869    2.0588   -4.4060 H         1 UNK         0.0814 
    108 H108       28.9039    2.4309   -4.3537 H         1 UNK         0.0814 
    109 H109       28.3151    0.9153   -3.6833 H         1 UNK         0.0814 
    110 H110       26.2031    1.5947   -7.0982 H         1 UNK         0.2983 
    111 H111       27.1872    3.8519   -8.6350 H         1 UNK         0.0947 
    112 H112       24.8840    3.8218   -9.5951 H         1 UNK         0.0806 
    113 H113       24.8387    3.7469   -7.8402 H         1 UNK         0.0806 
    114 H114       24.5508    2.2928   -8.7919 H         1 UNK         0.0806 
    115 H115       26.4250    0.4197   -9.3654 H         1 UNK         0.3000 
    116 H116       26.7977    0.6592  -12.1941 H         1 UNK         0.0850 
    117 H117       26.6419   -1.8409  -12.1356 H         1 UNK         0.0810 
    118 H118       25.3527   -1.0816  -11.2156 H         1 UNK         0.0810 
    119 H119       26.7224   -1.8073  -10.3782 H         1 UNK         0.0810 
    120 H120       28.9241   -0.6408   -9.5911 H         1 UNK         0.3040 
    121 H121       31.0928   -1.2282  -11.5030 H         1 UNK         0.0766 
    122 H122       32.1947   -2.1683   -9.4770 H         1 UNK         0.0812 
    123 H123       30.5595   -2.7920   -9.6092 H         1 UNK         0.0812 
    124 H124       30.9285   -1.5136   -8.4497 H         1 UNK         0.0812 
    125 H125       33.2740   -0.4220  -11.0948 H         1 UNK         0.3205 
    126 H126       33.4393    2.4331  -10.4935 H         1 UNK         0.0754 
    127 H127       35.7857    2.1568  -11.2461 H         1 UNK         0.0769 
    128 H128       34.6824    1.4451  -12.4091 H         1 UNK         0.0769 
    129 H129       35.5920    0.4098  -11.3080 H         1 UNK         0.0769 
    130 H130       32.5084    1.4142   -8.2467 H         1 UNK         0.2981 
    131 H131       34.5964    0.6381   -6.3723 H         1 UNK         0.0541 
    132 H132       34.1773    4.6564   -6.1077 H         1 UNK         0.3459 
    133 H133       33.4970    3.7648   -7.4460 H         1 UNK         0.3459 
    134 H134       32.0948   -0.1637   -6.4299 H         1 UNK         0.0612 
    135 H135       31.7333    1.3229   -5.5919 H         1 UNK         0.0612 
    136 H136       31.4285   -0.4864   -2.4467 H         1 UNK         0.0624 
    137 H137       30.6244    0.0695   -3.8845 H         1 UNK         0.0624 
@<TRIPOS>BOND
     1    1    2 1    
     2    1   72 1    
     3    1   73 1    
     4    1   74 1    
     5    2    3 2    
     6    2    4 am   BACKBONE|DICT|INTERRES
     7    4    5 1    
     8    4   75 1    
     9    5    6 1    
    10    5   35 1    
    11    5   76 1    
    12    6    7 1    
    13    6   77 1    
    14    6   78 1    
    15    7    8 1    
    16    8    9 1    
    17    8   79 1    
    18    8   80 1    
    19    9   10 ar   
    20    9   14 ar   
    21   10   11 ar   
    22   10   81 1    
    23   11   12 ar   
    24   11   71 1    
    25   12   13 ar   
    26   12   82 1    
    27   13   14 ar   
    28   13   15 1    
    29   14   83 1    
    30   15   16 1    
    31   15   84 1    
    32   15   85 1    
    33   16   17 1    
    34   17   18 1    
    35   17   86 1    
    36   17   87 1    
    37   18   19 1    
    38   18   37 1    
    39   18   88 1    
    40   19   20 am   BACKBONE|DICT|INTERRES
    41   19   89 1    
    42   20   21 2    
    43   20   22 1    
    44   22   23 1    
    45   22   24 1    
    46   22   90 1    
    47   23   91 1    
    48   23   92 1    
    49   23   93 1    
    50   24   25 am   BACKBONE|DICT|INTERRES
    51   24   94 1    
    52   25   26 2    
    53   25   27 1    
    54   27   28 1    
    55   27   29 1    
    56   27   95 1    
    57   28   96 1    
    58   28   97 1    
    59   28   98 1    
    60   29   30 am   BACKBONE|DICT|INTERRES
    61   29   99 1    
    62   30   31 2    
    63   30   32 1    
    64   32   33 1    
    65   32   34 1    
    66   32  100 1    
    67   33  101 1    
    68   33  102 1    
    69   33  103 1    
    70   34   35 am   BACKBONE|DICT|INTERRES
    71   34  104 1    
    72   35   36 2    
    73   37   38 2    
    74   37   39 am   BACKBONE|DICT|INTERRES
    75   39   40 1    
    76   39  105 1    
    77   40   41 1    
    78   40   42 1    
    79   40  106 1    
    80   41  107 1    
    81   41  108 1    
    82   41  109 1    
    83   42   43 2    
    84   42   44 am   BACKBONE|DICT|INTERRES
    85   44   45 1    
    86   44  110 1    
    87   45   46 1    
    88   45   47 1    
    89   45  111 1    
    90   46  112 1    
    91   46  113 1    
    92   46  114 1    
    93   47   48 2    
    94   47   49 am   BACKBONE|DICT|INTERRES
    95   49   50 1    
    96   49  115 1    
    97   50   51 1    
    98   50   52 1    
    99   50  116 1    
   100   51  117 1    
   101   51  118 1    
   102   51  119 1    
   103   52   53 2    
   104   52   54 am   BACKBONE|DICT|INTERRES
   105   54   55 1    
   106   54  120 1    
   107   55   56 1    
   108   55   57 1    
   109   55  121 1    
   110   56  122 1    
   111   56  123 1    
   112   56  124 1    
   113   57   58 2    
   114   57   59 am   BACKBONE|DICT|INTERRES
   115   59   60 1    
   116   59  125 1    
   117   60   61 1    
   118   60   62 1    
   119   60  126 1    
   120   61  127 1    
   121   61  128 1    
   122   61  129 1    
   123   62   63 2    
   124   62   64 am   BACKBONE|DICT|INTERRES
   125   64   65 1    
   126   64  130 1    
   127   65   66 1    
   128   65   69 1    
   129   65  131 1    
   130   66   67 am   BACKBONE|DICT|INTERRES
   131   66   68 2    
   132   67  132 1    
   133   67  133 1    
   134   69   70 1    
   135   69  134 1    
   136   69  135 1    
   137   70   71 1    
   138   71  136 1    
   139   71  137 1    
@<TRIPOS>SUBSTRUCTURE
     1 UNK         1 GROUP             0       ****    0 ROOT    
