@<TRIPOS>MOLECULE
3R137
137   139    1
SMALL
USER_CHARGES


@<TRIPOS>ATOM
      1 CA         25.6436   -2.9103    2.0038 C.3       0 UNK        -0.2020 
      2 C          25.9272   -2.5724    0.5484 C.2       0 UNK         0.4855 
      3 O          25.0523   -2.7453   -0.2992 O.2       0 UNK        -0.5197 
      4 N          27.1351   -2.0665    0.2563 N.am      1 UNK        -0.4892 
      5 CA         27.6530   -1.7442   -1.0882 C.3       1 UNK         0.0835 
      6 C6         27.8982   -3.0010   -1.9653 C.3       12 UNK        -0.0855 
      7 S7         28.9318   -4.2625   -1.1390 S.3       12 UNK        -0.2931 
      8 C8         30.6041   -3.8458   -1.7475 C.3       12 UNK         0.0378 
      9 C9         30.7990   -3.9517   -3.2607 C.ar      12 UNK        -0.0802 
     10 C10        31.8383   -3.2314   -3.8549 C.ar      12 UNK        -0.0944 
     11 C11        32.0489   -3.2777   -5.2365 C.ar      12 UNK        -0.0787 
     12 C12        31.2056   -4.0601   -6.0335 C.ar      12 UNK        -0.0862 
     13 C13        30.1705   -4.8009   -5.4520 C.ar      12 UNK        -0.0733 
     14 C14        29.9831   -4.7524   -4.0687 C.ar      12 UNK        -0.0832 
     15 C15        29.2649   -5.6836   -6.3007 C.3       12 UNK         0.0240 
     16 S16        28.1432   -4.7396   -7.3809 S.3       12 UNK        -0.2522 
     17 C17        27.1484   -3.7343   -6.2181 C.3       12 UNK        -0.0967 
     18 CA         26.8668   -2.3327   -6.8157 C.3       5 UNK         0.0660 
     19 N          25.6048   -1.7414   -6.3564 N.am      5 UNK        -0.4015 
     20 C          25.0614   -0.6247   -6.8611 C.2       4 UNK         0.4946 
     21 O          25.6556    0.1328   -7.6289 O.2       4 UNK        -0.5353 
     22 CA         23.6045   -0.2908   -6.4978 C.3       4 UNK         0.0277 
     23 CB         22.6318   -1.0105   -7.4514 C.3       4 UNK        -0.1981 
     24 N          23.2273   -0.5002   -5.0960 N.am      4 UNK        -0.4209 
     25 C          23.1556   -1.6292   -4.3800 C.2       3 UNK         0.4942 
     26 O          23.4721   -2.7396   -4.8124 O.2       3 UNK        -0.5208 
     27 CA         22.6841   -1.4613   -2.9207 C.3       3 UNK         0.0250 
     28 CB         22.3931   -2.8103   -2.2385 C.3       3 UNK        -0.1990 
     29 N          23.6703   -0.7203   -2.1292 N.am      3 UNK        -0.4232 
     30 C          23.9253    0.5936   -2.2459 C.2       2 UNK         0.4993 
     31 O          23.2430    1.3512   -2.9387 O.2       2 UNK        -0.5286 
     32 CA         25.1522    1.1716   -1.5142 C.3       2 UNK         0.0209 
     33 CB         24.7102    2.0256   -0.3145 C.3       2 UNK        -0.1931 
     34 N          26.1143    0.1678   -1.0543 N.am      2 UNK        -0.4546 
     35 C          26.8031   -0.6835   -1.8292 C.2       1 UNK         0.5154 
     36 O          26.7562   -0.6705   -3.0625 O.2       1 UNK        -0.5181 
     37 C          28.0860   -1.3947   -6.7186 C.2       5 UNK         0.5014 
     38 O          28.8597   -1.3404   -7.6750 O.2       5 UNK        -0.5248 
     39 N          28.2166   -0.6281   -5.6237 N.am      6 UNK        -0.4434 
     40 CA         29.3221    0.3231   -5.4553 C.3       6 UNK         0.0363 
     41 CB         29.3642    0.8569   -4.0167 C.3       6 UNK        -0.1936 
     42 C          29.3142    1.4828   -6.4675 C.2       6 UNK         0.5081 
     43 O          30.3841    1.9835   -6.8205 O.2       6 UNK        -0.5248 
     44 N          28.1184    1.8741   -6.9283 N.am      7 UNK        -0.4718 
     45 CA         27.9294    2.8717   -7.9794 C.3       7 UNK         0.0273 
     46 CB         26.5503    3.5335   -7.8263 C.3       7 UNK        -0.1935 
     47 C          28.0880    2.2473   -9.3730 C.2       7 UNK         0.5018 
     48 O          28.7458    2.8444  -10.2239 O.2       7 UNK        -0.5186 
     49 N          27.5083    1.0545   -9.5763 N.am      8 UNK        -0.4240 
     50 CA         27.5475    0.3039  -10.8354 C.3       8 UNK         0.0235 
     51 CB         26.5952   -0.8994  -10.7533 C.3       8 UNK        -0.2000 
     52 C          28.9631   -0.1486  -11.2294 C.2       8 UNK         0.4941 
     53 O          29.3367   -0.0105  -12.3948 O.2       8 UNK        -0.5273 
     54 N          29.7346   -0.6498  -10.2543 N.am      9 UNK        -0.4262 
     55 CA         31.1464   -1.0089  -10.4199 C.3       9 UNK         0.0264 
     56 CB         31.5443   -2.0047   -9.3178 C.3       9 UNK        -0.1955 
     57 C          32.0829    0.2133  -10.3974 C.2       9 UNK         0.5031 
     58 O          33.2470    0.0781  -10.7760 O.2       9 UNK        -0.5390 
     59 N          31.5714    1.3654   -9.9356 N.am      10 UNK        -0.4204 
     60 CA         32.2521    2.6542   -9.7590 C.3       10 UNK         0.0237 
     61 CB         32.6764    3.2432  -11.1211 C.3       10 UNK        -0.1985 
     62 C          33.4071    2.6175   -8.7374 C.2       10 UNK         0.4970 
     63 O          34.2931    3.4727   -8.7903 O.2       10 UNK        -0.4914 
     64 N          33.3744    1.6433   -7.8205 N.am      11 UNK        -0.4285 
     65 CA         34.3260    1.4996   -6.7125 C.3       11 UNK         0.1007 
     66 C          34.0355    2.4493   -5.5134 C.2       11 UNK         0.5703 
     67 N          32.8328    3.0000   -5.3802 N.am      11 UNK        -0.7361 
     68 O          34.9235    2.7025   -4.7027 O.2       11 UNK        -0.4986 
     69 C69        34.4691    0.0164   -6.2770 C.3       12 UNK        -0.0947 
     70 S70        32.9089   -0.6990   -5.6679 S.3       12 UNK        -0.2240 
     71 C71        33.1947   -2.4831   -5.8495 C.3       12 UNK         0.0194 
     72 H72        25.4055   -3.9691    2.1010 H         1 UNK         0.0906 
     73 H73        26.4959   -2.6940    2.6476 H         1 UNK         0.0906 
     74 H74        24.7909   -2.3349    2.3632 H         1 UNK         0.0906 
     75 H75        27.8020   -1.9438    1.0065 H         1 UNK         0.3140 
     76 H76        28.6219   -1.2677   -0.9303 H         1 UNK         0.1085 
     77 H77        26.9478   -3.4683   -2.2298 H         1 UNK         0.0836 
     78 H78        28.3636   -2.7187   -2.9109 H         1 UNK         0.0836 
     79 H79        31.3219   -4.5076   -1.2614 H         1 UNK         0.0731 
     80 H80        30.8430   -2.8341   -1.4157 H         1 UNK         0.0731 
     81 H81        32.4862   -2.6198   -3.2414 H         1 UNK         0.1312 
     82 H82        31.3539   -4.0995   -7.1037 H         1 UNK         0.1406 
     83 H83        29.1897   -5.3379   -3.6260 H         1 UNK         0.1631 
     84 H84        28.6688   -6.3487   -5.6739 H         1 UNK         0.0717 
     85 H85        29.8843   -6.3307   -6.9232 H         1 UNK         0.0717 
     86 H86        26.2133   -4.2711   -6.0498 H         1 UNK         0.0934 
     87 H87        27.6306   -3.6591   -5.2427 H         1 UNK         0.0934 
     88 H88        26.6975   -2.4794   -7.8837 H         1 UNK         0.0739 
     89 H89        25.0226   -2.2971   -5.7339 H         1 UNK         0.3093 
     90 H90        23.4895    0.7812   -6.6671 H         1 UNK         0.0818 
     91 H91        21.6020   -0.6997   -7.2757 H         1 UNK         0.0819 
     92 H92        22.8659   -0.7809   -8.4919 H         1 UNK         0.0819 
     93 H93        22.6783   -2.0944   -7.3412 H         1 UNK         0.0819 
     94 H94        23.0379    0.3533   -4.5751 H         1 UNK         0.3041 
     95 H95        21.7525   -0.8916   -2.9381 H         1 UNK         0.0784 
     96 H96        21.6208   -3.3608   -2.7771 H         1 UNK         0.0793 
     97 H97        23.2797   -3.4447   -2.2027 H         1 UNK         0.0793 
     98 H98        22.0410   -2.6712   -1.2162 H         1 UNK         0.0793 
     99 H99        24.2773   -1.2833   -1.5409 H         1 UNK         0.3024 
    100 H100       25.6680    1.8173   -2.2285 H         1 UNK         0.1171 
    101 H101       25.5601    2.5190    0.1574 H         1 UNK         0.0786 
    102 H102       24.0169    2.8086   -0.6256 H         1 UNK         0.0786 
    103 H103       24.2048    1.4254    0.4433 H         1 UNK         0.0786 
    104 H104       26.2098    0.0615   -0.0545 H         1 UNK         0.2977 
    105 H105       27.5463   -0.7022   -4.8621 H         1 UNK         0.3127 
    106 H106       30.2364   -0.2392   -5.6273 H         1 UNK         0.0770 
    107 H107       28.4520    1.3960   -3.7591 H         1 UNK         0.0814 
    108 H108       30.2007    1.5444   -3.8823 H         1 UNK         0.0814 
    109 H109       29.4978    0.0464   -3.3007 H         1 UNK         0.0814 
    110 H110       27.2974    1.3598   -6.6361 H         1 UNK         0.2983 
    111 H111       28.6893    3.6495   -7.8728 H         1 UNK         0.0947 
    112 H112       26.4001    4.2985   -8.5892 H         1 UNK         0.0806 
    113 H113       26.4512    4.0205   -6.8561 H         1 UNK         0.0806 
    114 H114       25.7373    2.8133   -7.9238 H         1 UNK         0.0806 
    115 H115       26.9498    0.6552   -8.8236 H         1 UNK         0.3000 
    116 H116       27.1837    0.9697  -11.6210 H         1 UNK         0.0850 
    117 H117       26.5455   -1.4220  -11.7094 H         1 UNK         0.0810 
    118 H118       25.5815   -0.5894  -10.4984 H         1 UNK         0.0810 
    119 H119       26.9239   -1.6207  -10.0060 H         1 UNK         0.0810 
    120 H120       29.3391   -0.7877   -9.3229 H         1 UNK         0.3040 
    121 H121       31.2719   -1.5024  -11.3860 H         1 UNK         0.0766 
    122 H122       31.4651   -1.5583   -8.3259 H         1 UNK         0.0812 
    123 H123       32.5746   -2.3395   -9.4442 H         1 UNK         0.0812 
    124 H124       30.9087   -2.8902   -9.3355 H         1 UNK         0.0812 
    125 H125       30.5969    1.3600   -9.6665 H         1 UNK         0.3205 
    126 H126       31.5046    3.3243   -9.3315 H         1 UNK         0.0754 
    127 H127       33.0418    4.2649  -11.0110 H         1 UNK         0.0769 
    128 H128       31.8366    3.2751  -11.8155 H         1 UNK         0.0769 
    129 H129       33.4737    2.6608  -11.5837 H         1 UNK         0.0769 
    130 H130       32.5796    1.0214   -7.8016 H         1 UNK         0.2981 
    131 H131       35.3060    1.8000   -7.0882 H         1 UNK         0.0541 
    132 H132       32.6580    3.6212   -4.6074 H         1 UNK         0.3459 
    133 H133       32.0786    2.7463   -6.0092 H         1 UNK         0.3459 
    134 H134       35.2284   -0.0866   -5.4998 H         1 UNK         0.0612 
    135 H135       34.8191   -0.5789   -7.1218 H         1 UNK         0.0612 
    136 H136       33.3185   -2.7242   -6.9061 H         1 UNK         0.0624 
    137 H137       34.1277   -2.7526   -5.3527 H         1 UNK         0.0624 
@<TRIPOS>BOND
     1    1    2 1    
     2    1   72 1    
     3    1   73 1    
     4    1   74 1    
     5    2    3 2    
     6    2    4 am   BACKBONE|DICT|INTERRES
     7    4    5 1    
     8    4   75 1    
     9    5    6 1    
    10    5   35 1    
    11    5   76 1    
    12    6    7 1    
    13    6   77 1    
    14    6   78 1    
    15    7    8 1    
    16    8    9 1    
    17    8   79 1    
    18    8   80 1    
    19    9   10 ar   
    20    9   14 ar   
    21   10   11 ar   
    22   10   81 1    
    23   11   12 ar   
    24   11   71 1    
    25   12   13 ar   
    26   12   82 1    
    27   13   14 ar   
    28   13   15 1    
    29   14   83 1    
    30   15   16 1    
    31   15   84 1    
    32   15   85 1    
    33   16   17 1    
    34   17   18 1    
    35   17   86 1    
    36   17   87 1    
    37   18   19 1    
    38   18   37 1    
    39   18   88 1    
    40   19   20 am   BACKBONE|DICT|INTERRES
    41   19   89 1    
    42   20   21 2    
    43   20   22 1    
    44   22   23 1    
    45   22   24 1    
    46   22   90 1    
    47   23   91 1    
    48   23   92 1    
    49   23   93 1    
    50   24   25 am   BACKBONE|DICT|INTERRES
    51   24   94 1    
    52   25   26 2    
    53   25   27 1    
    54   27   28 1    
    55   27   29 1    
    56   27   95 1    
    57   28   96 1    
    58   28   97 1    
    59   28   98 1    
    60   29   30 am   BACKBONE|DICT|INTERRES
    61   29   99 1    
    62   30   31 2    
    63   30   32 1    
    64   32   33 1    
    65   32   34 1    
    66   32  100 1    
    67   33  101 1    
    68   33  102 1    
    69   33  103 1    
    70   34   35 am   BACKBONE|DICT|INTERRES
    71   34  104 1    
    72   35   36 2    
    73   37   38 2    
    74   37   39 am   BACKBONE|DICT|INTERRES
    75   39   40 1    
    76   39  105 1    
    77   40   41 1    
    78   40   42 1    
    79   40  106 1    
    80   41  107 1    
    81   41  108 1    
    82   41  109 1    
    83   42   43 2    
    84   42   44 am   BACKBONE|DICT|INTERRES
    85   44   45 1    
    86   44  110 1    
    87   45   46 1    
    88   45   47 1    
    89   45  111 1    
    90   46  112 1    
    91   46  113 1    
    92   46  114 1    
    93   47   48 2    
    94   47   49 am   BACKBONE|DICT|INTERRES
    95   49   50 1    
    96   49  115 1    
    97   50   51 1    
    98   50   52 1    
    99   50  116 1    
   100   51  117 1    
   101   51  118 1    
   102   51  119 1    
   103   52   53 2    
   104   52   54 am   BACKBONE|DICT|INTERRES
   105   54   55 1    
   106   54  120 1    
   107   55   56 1    
   108   55   57 1    
   109   55  121 1    
   110   56  122 1    
   111   56  123 1    
   112   56  124 1    
   113   57   58 2    
   114   57   59 am   BACKBONE|DICT|INTERRES
   115   59   60 1    
   116   59  125 1    
   117   60   61 1    
   118   60   62 1    
   119   60  126 1    
   120   61  127 1    
   121   61  128 1    
   122   61  129 1    
   123   62   63 2    
   124   62   64 am   BACKBONE|DICT|INTERRES
   125   64   65 1    
   126   64  130 1    
   127   65   66 1    
   128   65   69 1    
   129   65  131 1    
   130   66   67 am   BACKBONE|DICT|INTERRES
   131   66   68 2    
   132   67  132 1    
   133   67  133 1    
   134   69   70 1    
   135   69  134 1    
   136   69  135 1    
   137   70   71 1    
   138   71  136 1    
   139   71  137 1    
@<TRIPOS>SUBSTRUCTURE
     1 UNK         1 GROUP             0       ****    0 ROOT    
