@<TRIPOS>MOLECULE
3R137
137   139    1
SMALL
USER_CHARGES


@<TRIPOS>ATOM
      1 CA         30.7558    0.0661    1.7761 C.3       0 UNK        -0.2020 
      2 C          30.0669   -0.3552    0.4870 C.2       0 UNK         0.4855 
      3 O          29.5484    0.4974   -0.2350 O.2       0 UNK        -0.5197 
      4 N          30.0692   -1.6604    0.1887 N.am      1 UNK        -0.4892 
      5 CA         29.4242   -2.2583   -0.9851 C.3       1 UNK         0.0835 
      6 C6         29.8620   -3.7314   -1.2013 C.3       12 UNK        -0.0855 
      7 S7         31.6742   -3.9331   -1.3419 S.3       12 UNK        -0.2931 
      8 C8         31.8268   -5.4451   -2.3529 C.3       12 UNK         0.0378 
      9 C9         31.5527   -5.1572   -3.8206 C.ar      12 UNK        -0.0802 
     10 C10        32.5360   -4.5536   -4.6105 C.ar      12 UNK        -0.0944 
     11 C11        32.2518   -4.1720   -5.9254 C.ar      12 UNK        -0.0787 
     12 C12        30.9926   -4.4472   -6.4653 C.ar      12 UNK        -0.0862 
     13 C13        30.0093   -5.0670   -5.6894 C.ar      12 UNK        -0.0733 
     14 C14        30.3007   -5.4384   -4.3741 C.ar      12 UNK        -0.0832 
     15 C15        28.6063   -5.2585   -6.2463 C.3       12 UNK         0.0240 
     16 S16        27.3775   -4.2406   -5.3606 S.3       12 UNK        -0.2522 
     17 C17        28.0423   -2.5496   -5.5569 C.3       12 UNK        -0.0967 
     18 CA         27.3652   -1.7693   -6.7037 C.3       5 UNK         0.0660 
     19 N          25.9185   -1.6535   -6.5101 N.am      5 UNK        -0.4015 
     20 C          25.0454   -1.2653   -7.4473 C.2       4 UNK         0.4946 
     21 O          25.3604   -0.9828   -8.6021 O.2       4 UNK        -0.5353 
     22 CA         23.5774   -1.1373   -7.0083 C.3       4 UNK         0.0277 
     23 CB         22.8778   -2.5052   -7.0520 C.3       4 UNK        -0.1981 
     24 N          23.4426   -0.5548   -5.6700 N.am      4 UNK        -0.4209 
     25 C          23.7590    0.7129   -5.3682 C.2       3 UNK         0.4942 
     26 O          24.1396    1.5383   -6.1987 O.2       3 UNK        -0.5208 
     27 CA         23.6846    1.1124   -3.8827 C.3       3 UNK         0.0250 
     28 CB         22.2500    1.5112   -3.5014 C.3       3 UNK        -0.1990 
     29 N          24.1740    0.0786   -2.9588 N.am      3 UNK        -0.4232 
     30 C          25.4142   -0.4295   -2.9780 C.2       2 UNK         0.4993 
     31 O          26.2635   -0.1153   -3.8119 O.2       2 UNK        -0.5286 
     32 CA         25.7547   -1.4959   -1.9330 C.3       2 UNK         0.0209 
     33 CB         25.0975   -2.8428   -2.2930 C.3       2 UNK        -0.1931 
     34 N          27.2094   -1.6478   -1.8745 N.am      2 UNK        -0.4546 
     35 C          27.8892   -2.1702   -0.8491 C.2       1 UNK         0.5154 
     36 O          27.3514   -2.5954    0.1773 O.2       1 UNK        -0.5181 
     37 C          28.0221   -0.3878   -6.8949 C.2       5 UNK         0.5014 
     38 O          28.9299   -0.2560   -7.7177 O.2       5 UNK        -0.5248 
     39 N          27.5334    0.6240   -6.1650 N.am      6 UNK        -0.4434 
     40 CA         27.9202    2.0247   -6.3091 C.3       6 UNK         0.0363 
     41 CB         27.3286    2.8580   -5.1631 C.3       6 UNK        -0.1936 
     42 C          27.5237    2.5903   -7.6801 C.2       6 UNK         0.5081 
     43 O          28.3519    3.2265   -8.3295 O.2       6 UNK        -0.5248 
     44 N          26.2926    2.3055   -8.1255 N.am      7 UNK        -0.4718 
     45 CA         25.8050    2.6636   -9.4599 C.3       7 UNK         0.0273 
     46 CB         24.3019    2.3585   -9.5595 C.3       7 UNK        -0.1935 
     47 C          26.5829    1.9681  -10.5927 C.2       7 UNK         0.5018 
     48 O          26.8721    2.6081  -11.6046 O.2       7 UNK        -0.5186 
     49 N          26.9052    0.6812  -10.4040 N.am      8 UNK        -0.4240 
     50 CA         27.6257   -0.1402  -11.3754 C.3       8 UNK         0.0235 
     51 CB         27.4140   -1.6287  -11.0514 C.3       8 UNK        -0.2000 
     52 C          29.1272    0.1770  -11.4667 C.2       8 UNK         0.4941 
     53 O          29.6355    0.3201  -12.5799 O.2       8 UNK        -0.5273 
     54 N          29.8186    0.2209  -10.3188 N.am      9 UNK        -0.4262 
     55 CA         31.2829    0.1592  -10.2484 C.3       9 UNK         0.0264 
     56 CB         31.6862   -1.2929   -9.9210 C.3       9 UNK        -0.1955 
     57 C          31.9128    1.1385   -9.2437 C.2       9 UNK         0.5031 
     58 O          33.1248    1.0587   -9.0386 O.2       9 UNK        -0.5390 
     59 N          31.1177    2.0243   -8.6213 N.am      10 UNK        -0.4204 
     60 CA         31.5216    2.9659   -7.5607 C.3       10 UNK         0.0237 
     61 CB         32.5541    3.9914   -8.0789 C.3       10 UNK        -0.1985 
     62 C          31.9670    2.2823   -6.2490 C.2       10 UNK         0.4970 
     63 O          32.6331    2.9191   -5.4311 O.2       10 UNK        -0.4914 
     64 N          31.5807    1.0153   -6.0591 N.am      11 UNK        -0.4285 
     65 CA         31.8755    0.2163   -4.8684 C.3       11 UNK         0.1007 
     66 C          30.7917    0.4356   -3.7827 C.2       11 UNK         0.5703 
     67 N          31.1304    1.0887   -2.6810 N.am      11 UNK        -0.7361 
     68 O          29.6655   -0.0377   -3.9064 O.2       11 UNK        -0.4986 
     69 C69        31.9959   -1.2820   -5.2308 C.3       12 UNK        -0.0947 
     70 S70        33.5595   -1.6919   -6.0803 S.3       12 UNK        -0.2240 
     71 C71        33.2682   -3.3772   -6.7357 C.3       12 UNK         0.0194 
     72 H72        31.5599    0.7686    1.5587 H         1 UNK         0.0906 
     73 H73        30.0434    0.5576    2.4382 H         1 UNK         0.0906 
     74 H74        31.1829   -0.7840    2.3080 H         1 UNK         0.0906 
     75 H75        30.5097   -2.3164    0.8176 H         1 UNK         0.3140 
     76 H76        29.7309   -1.6839   -1.8605 H         1 UNK         0.1085 
     77 H77        29.5164   -4.3629   -0.3803 H         1 UNK         0.0836 
     78 H78        29.3890   -4.1209   -2.1033 H         1 UNK         0.0836 
     79 H79        32.8372   -5.8421   -2.2445 H         1 UNK         0.0731 
     80 H80        31.1534   -6.2142   -1.9712 H         1 UNK         0.0731 
     81 H81        33.4985   -4.3130   -4.1798 H         1 UNK         0.1312 
     82 H82        30.7604   -4.1300   -7.4729 H         1 UNK         0.1406 
     83 H83        29.5304   -5.8950   -3.7674 H         1 UNK         0.1631 
     84 H84        28.3251   -6.3091   -6.1626 H         1 UNK         0.0717 
     85 H85        28.5693   -5.0122   -7.3086 H         1 UNK         0.0717 
     86 H86        27.9080   -2.0287   -4.6095 H         1 UNK         0.0934 
     87 H87        29.1186   -2.5871   -5.7095 H         1 UNK         0.0934 
     88 H88        27.5281   -2.3281   -7.6275 H         1 UNK         0.0739 
     89 H89        25.5821   -1.8350   -5.5772 H         1 UNK         0.3093 
     90 H90        23.0769   -0.4747   -7.7179 H         1 UNK         0.0818 
     91 H91        21.8167   -2.4157   -6.8186 H         1 UNK         0.0819 
     92 H92        22.9524   -2.9478   -8.0464 H         1 UNK         0.0819 
     93 H93        23.3190   -3.2117   -6.3476 H         1 UNK         0.0819 
     94 H94        23.1246   -1.1623   -4.9291 H         1 UNK         0.3041 
     95 H95        24.3236    1.9885   -3.7537 H         1 UNK         0.0784 
     96 H96        21.8729    2.2910   -4.1649 H         1 UNK         0.0793 
     97 H97        21.5625    0.6670   -3.5670 H         1 UNK         0.0793 
     98 H98        22.2039    1.9044   -2.4856 H         1 UNK         0.0793 
     99 H99        23.5267   -0.2375   -2.2505 H         1 UNK         0.3024 
    100 H100       25.3918   -1.1515   -0.9618 H         1 UNK         0.1171 
    101 H101       24.0115   -2.7551   -2.3399 H         1 UNK         0.0786 
    102 H102       25.3227   -3.6078   -1.5498 H         1 UNK         0.0786 
    103 H103       25.4384   -3.2110   -3.2608 H         1 UNK         0.0786 
    104 H104       27.7018   -1.2220   -2.6535 H         1 UNK         0.2977 
    105 H105       26.8818    0.4051   -5.4121 H         1 UNK         0.3127 
    106 H106       29.0044    2.0719   -6.2246 H         1 UNK         0.0770 
    107 H107       26.2392    2.8585   -5.1810 H         1 UNK         0.0814 
    108 H108       27.6572    3.8959   -5.2269 H         1 UNK         0.0814 
    109 H109       27.6469    2.4737   -4.1934 H         1 UNK         0.0814 
    110 H110       25.6474    1.8165   -7.5115 H         1 UNK         0.2983 
    111 H111       25.9415    3.7403   -9.5831 H         1 UNK         0.0947 
    112 H112       23.9085    2.6481  -10.5348 H         1 UNK         0.0806 
    113 H113       23.7360    2.9054   -8.8051 H         1 UNK         0.0806 
    114 H114       24.0948    1.2965   -9.4258 H         1 UNK         0.0806 
    115 H115       26.5499    0.2083   -9.5770 H         1 UNK         0.3000 
    116 H116       27.1911    0.0476  -12.3598 H         1 UNK         0.0850 
    117 H117       27.9309   -2.2641  -11.7718 H         1 UNK         0.0810 
    118 H118       26.3572   -1.8943  -11.0851 H         1 UNK         0.0810 
    119 H119       27.7902   -1.8846  -10.0605 H         1 UNK         0.0810 
    120 H120       29.3291    0.0782   -9.4349 H         1 UNK         0.3040 
    121 H121       31.7165    0.4211  -11.2156 H         1 UNK         0.0766 
    122 H122       32.7704   -1.4104   -9.8972 H         1 UNK         0.0812 
    123 H123       31.3052   -1.9894  -10.6679 H         1 UNK         0.0812 
    124 H124       31.3031   -1.6024   -8.9475 H         1 UNK         0.0812 
    125 H125       30.1333    2.0498   -8.8629 H         1 UNK         0.3205 
    126 H126       30.6317    3.5349   -7.2966 H         1 UNK         0.0754 
    127 H127       32.7117    4.7888   -7.3515 H         1 UNK         0.0769 
    128 H128       32.2163    4.4615   -9.0024 H         1 UNK         0.0769 
    129 H129       33.5251    3.5339   -8.2692 H         1 UNK         0.0769 
    130 H130       30.9964    0.5728   -6.7548 H         1 UNK         0.2981 
    131 H131       32.8359    0.5327   -4.4557 H         1 UNK         0.0541 
    132 H132       30.4527    1.1559   -1.9302 H         1 UNK         0.3459 
    133 H133       32.0502    1.4841   -2.5685 H         1 UNK         0.3459 
    134 H134       31.1587   -1.5865   -5.8591 H         1 UNK         0.0612 
    135 H135       31.9481   -1.8906   -4.3258 H         1 UNK         0.0612 
    136 H136       32.9443   -3.2899   -7.7737 H         1 UNK         0.0624 
    137 H137       34.2161   -3.9163   -6.7576 H         1 UNK         0.0624 
@<TRIPOS>BOND
     1    1    2 1    
     2    1   72 1    
     3    1   73 1    
     4    1   74 1    
     5    2    3 2    
     6    2    4 am   BACKBONE|DICT|INTERRES
     7    4    5 1    
     8    4   75 1    
     9    5    6 1    
    10    5   35 1    
    11    5   76 1    
    12    6    7 1    
    13    6   77 1    
    14    6   78 1    
    15    7    8 1    
    16    8    9 1    
    17    8   79 1    
    18    8   80 1    
    19    9   10 ar   
    20    9   14 ar   
    21   10   11 ar   
    22   10   81 1    
    23   11   12 ar   
    24   11   71 1    
    25   12   13 ar   
    26   12   82 1    
    27   13   14 ar   
    28   13   15 1    
    29   14   83 1    
    30   15   16 1    
    31   15   84 1    
    32   15   85 1    
    33   16   17 1    
    34   17   18 1    
    35   17   86 1    
    36   17   87 1    
    37   18   19 1    
    38   18   37 1    
    39   18   88 1    
    40   19   20 am   BACKBONE|DICT|INTERRES
    41   19   89 1    
    42   20   21 2    
    43   20   22 1    
    44   22   23 1    
    45   22   24 1    
    46   22   90 1    
    47   23   91 1    
    48   23   92 1    
    49   23   93 1    
    50   24   25 am   BACKBONE|DICT|INTERRES
    51   24   94 1    
    52   25   26 2    
    53   25   27 1    
    54   27   28 1    
    55   27   29 1    
    56   27   95 1    
    57   28   96 1    
    58   28   97 1    
    59   28   98 1    
    60   29   30 am   BACKBONE|DICT|INTERRES
    61   29   99 1    
    62   30   31 2    
    63   30   32 1    
    64   32   33 1    
    65   32   34 1    
    66   32  100 1    
    67   33  101 1    
    68   33  102 1    
    69   33  103 1    
    70   34   35 am   BACKBONE|DICT|INTERRES
    71   34  104 1    
    72   35   36 2    
    73   37   38 2    
    74   37   39 am   BACKBONE|DICT|INTERRES
    75   39   40 1    
    76   39  105 1    
    77   40   41 1    
    78   40   42 1    
    79   40  106 1    
    80   41  107 1    
    81   41  108 1    
    82   41  109 1    
    83   42   43 2    
    84   42   44 am   BACKBONE|DICT|INTERRES
    85   44   45 1    
    86   44  110 1    
    87   45   46 1    
    88   45   47 1    
    89   45  111 1    
    90   46  112 1    
    91   46  113 1    
    92   46  114 1    
    93   47   48 2    
    94   47   49 am   BACKBONE|DICT|INTERRES
    95   49   50 1    
    96   49  115 1    
    97   50   51 1    
    98   50   52 1    
    99   50  116 1    
   100   51  117 1    
   101   51  118 1    
   102   51  119 1    
   103   52   53 2    
   104   52   54 am   BACKBONE|DICT|INTERRES
   105   54   55 1    
   106   54  120 1    
   107   55   56 1    
   108   55   57 1    
   109   55  121 1    
   110   56  122 1    
   111   56  123 1    
   112   56  124 1    
   113   57   58 2    
   114   57   59 am   BACKBONE|DICT|INTERRES
   115   59   60 1    
   116   59  125 1    
   117   60   61 1    
   118   60   62 1    
   119   60  126 1    
   120   61  127 1    
   121   61  128 1    
   122   61  129 1    
   123   62   63 2    
   124   62   64 am   BACKBONE|DICT|INTERRES
   125   64   65 1    
   126   64  130 1    
   127   65   66 1    
   128   65   69 1    
   129   65  131 1    
   130   66   67 am   BACKBONE|DICT|INTERRES
   131   66   68 2    
   132   67  132 1    
   133   67  133 1    
   134   69   70 1    
   135   69  134 1    
   136   69  135 1    
   137   70   71 1    
   138   71  136 1    
   139   71  137 1    
@<TRIPOS>SUBSTRUCTURE
     1 UNK         1 GROUP             0       ****    0 ROOT    
