@<TRIPOS>MOLECULE
3R137
137   139    1
SMALL
USER_CHARGES


@<TRIPOS>ATOM
      1 CA         30.7024   -0.2298    0.4643 C.3       0 UNK        -0.2020 
      2 C          29.7651   -0.9898   -0.4653 C.2       0 UNK         0.4855 
      3 O          29.2550   -0.4110   -1.4259 O.2       0 UNK        -0.5197 
      4 N          29.5441   -2.2834   -0.1933 N.am      1 UNK        -0.4892 
      5 CA         28.6725   -3.1659   -0.9781 C.3       1 UNK         0.0835 
      6 C6         28.9229   -4.6704   -0.6847 C.3       12 UNK        -0.0855 
      7 S7         30.6871   -5.1435   -0.7600 S.3       12 UNK        -0.2931 
      8 C8         30.8544   -5.7871   -2.4595 C.3       12 UNK         0.0378 
      9 C9         30.6486   -4.7297   -3.5410 C.ar      12 UNK        -0.0802 
     10 C10        31.2392   -3.4647   -3.4387 C.ar      12 UNK        -0.0944 
     11 C11        31.0436   -2.5033   -4.4341 C.ar      12 UNK        -0.0787 
     12 C12        30.2668   -2.8173   -5.5522 C.ar      12 UNK        -0.0862 
     13 C13        29.6950   -4.0871   -5.6826 C.ar      12 UNK        -0.0733 
     14 C14        29.8870   -5.0356   -4.6729 C.ar      12 UNK        -0.0832 
     15 C15        28.8947   -4.4452   -6.9276 C.3       12 UNK         0.0240 
     16 S16        27.1664   -4.8876   -6.5622 S.3       12 UNK        -0.2522 
     17 C17        26.5309   -3.3680   -5.7845 C.3       12 UNK        -0.0967 
     18 CA         26.0727   -2.3077   -6.8222 C.3       5 UNK         0.0660 
     19 N          24.8131   -1.6755   -6.4329 N.am      5 UNK        -0.4015 
     20 C          23.9618   -1.0742   -7.2743 C.2       4 UNK         0.4946 
     21 O          24.1105   -1.0442   -8.4959 O.2       4 UNK        -0.5353 
     22 CA         22.7396   -0.3772   -6.6476 C.3       4 UNK         0.0277 
     23 CB         21.5251   -1.3195   -6.6487 C.3       4 UNK        -0.1981 
     24 N          22.9813    0.1024   -5.2826 N.am      4 UNK        -0.4209 
     25 C          23.8065    1.1133   -4.9760 C.2       3 UNK         0.4942 
     26 O          24.4259    1.7672   -5.8139 O.2       3 UNK        -0.5208 
     27 CA         24.0199    1.4072   -3.4807 C.3       3 UNK         0.0250 
     28 CB         22.8874    2.2935   -2.9382 C.3       3 UNK        -0.1990 
     29 N          24.1601    0.2118   -2.6365 N.am      3 UNK        -0.4232 
     30 C          25.0679   -0.7566   -2.8211 C.2       2 UNK         0.4993 
     31 O          25.8208   -0.8161   -3.7965 O.2       2 UNK        -0.5286 
     32 CA         25.1343   -1.8683   -1.7716 C.3       2 UNK         0.0209 
     33 CB         24.1249   -2.9853   -2.0870 C.3       2 UNK        -0.1931 
     34 N          26.4905   -2.4086   -1.8009 N.am      2 UNK        -0.4546 
     35 C          27.1967   -2.7931   -0.7348 C.2       1 UNK         0.5154 
     36 O          26.7365   -2.8487    0.4088 O.2       1 UNK        -0.5181 
     37 C          27.1474   -1.2304   -7.0553 C.2       5 UNK         0.5014 
     38 O          27.8106   -1.2444   -8.0917 O.2       5 UNK        -0.5248 
     39 N          27.2653   -0.2880   -6.1087 N.am      6 UNK        -0.4434 
     40 CA         28.1790    0.8563   -6.1521 C.3       6 UNK         0.0363 
     41 CB         28.1096    1.6099   -4.8156 C.3       6 UNK        -0.1936 
     42 C          27.9212    1.8101   -7.3329 C.2       6 UNK         0.5081 
     43 O          28.8586    2.4399   -7.8190 O.2       6 UNK        -0.5248 
     44 N          26.6657    1.8869   -7.7943 N.am      7 UNK        -0.4718 
     45 CA         26.2727    2.6006   -9.0108 C.3       7 UNK         0.0273 
     46 CB         24.7415    2.7317   -9.0459 C.3       7 UNK        -0.1935 
     47 C          26.7833    1.9361  -10.3043 C.2       7 UNK         0.5018 
     48 O          26.9479    2.6358  -11.3047 O.2       7 UNK        -0.5186 
     49 N          27.0107    0.6151  -10.2746 N.am      8 UNK        -0.4240 
     50 CA         27.5174   -0.1660  -11.4029 C.3       8 UNK         0.0235 
     51 CB         26.8614   -1.5579  -11.4057 C.3       8 UNK        -0.2000 
     52 C          29.0479   -0.2760  -11.3564 C.2       8 UNK         0.4941 
     53 O          29.7033    0.0173  -12.3572 O.2       8 UNK        -0.5273 
     54 N          29.5884   -0.6878  -10.2031 N.am      9 UNK        -0.4262 
     55 CA         31.0183   -0.8304   -9.9454 C.3       9 UNK         0.0264 
     56 CB         31.3086   -2.2670   -9.4759 C.3       9 UNK        -0.1955 
     57 C          31.4090    0.2060   -8.8883 C.2       9 UNK         0.5031 
     58 O          31.2402   -0.0439   -7.6941 O.2       9 UNK        -0.5390 
     59 N          31.8871    1.3670   -9.3504 N.am      10 UNK        -0.4204 
     60 CA         32.2729    2.5090   -8.5213 C.3       10 UNK         0.0237 
     61 CB         32.3811    3.7597   -9.4132 C.3       10 UNK        -0.1985 
     62 C          33.5679    2.2421   -7.7335 C.2       10 UNK         0.4970 
     63 O          34.6511    2.6137   -8.1903 O.2       10 UNK        -0.4914 
     64 N          33.4266    1.5906   -6.5737 N.am      11 UNK        -0.4285 
     65 CA         34.4933    1.3395   -5.5933 C.3       11 UNK         0.1007 
     66 C          35.1609    2.6452   -5.0764 C.2       11 UNK         0.5703 
     67 N          36.4668    2.6262   -4.8459 N.am      11 UNK        -0.7361 
     68 O          34.4995    3.6555   -4.8413 O.2       11 UNK        -0.4986 
     69 C69        33.9770    0.4991   -4.3967 C.3       12 UNK        -0.0947 
     70 S70        33.4032   -1.1599   -4.8879 S.3       12 UNK        -0.2240 
     71 C71        31.6823   -1.1307   -4.3001 C.3       12 UNK         0.0194 
     72 H72        31.5471    0.1686   -0.0997 H         1 UNK         0.0906 
     73 H73        30.1769    0.6059    0.9260 H         1 UNK         0.0906 
     74 H74        31.0941   -0.8655    1.2598 H         1 UNK         0.0906 
     75 H75        29.9816   -2.7121    0.6111 H         1 UNK         0.3140 
     76 H76        28.8958   -2.9924   -2.0337 H         1 UNK         0.1085 
     77 H77        28.5644   -4.9294    0.3144 H         1 UNK         0.0836 
     78 H78        28.3528   -5.2928   -1.3787 H         1 UNK         0.0836 
     79 H79        31.8547   -6.2064   -2.5749 H         1 UNK         0.0731 
     80 H80        30.1571   -6.6165   -2.5884 H         1 UNK         0.0731 
     81 H81        31.8471   -3.2223   -2.5778 H         1 UNK         0.1312 
     82 H82        30.1236   -2.0745   -6.3257 H         1 UNK         0.1406 
     83 H83        29.4427   -6.0166   -4.7765 H         1 UNK         0.1631 
     84 H84        29.3741   -5.2909   -7.4222 H         1 UNK         0.0717 
     85 H85        28.9036   -3.6300   -7.6504 H         1 UNK         0.0717 
     86 H86        25.6840   -3.6867   -5.1750 H         1 UNK         0.0934 
     87 H87        27.2545   -2.9746   -5.0679 H         1 UNK         0.0934 
     88 H88        25.8992   -2.8042   -7.7799 H         1 UNK         0.0739 
     89 H89        24.6581   -1.5760   -5.4387 H         1 UNK         0.3093 
     90 H90        22.5023    0.4872   -7.2719 H         1 UNK         0.0818 
     91 H91        20.6303   -0.8147   -6.2841 H         1 UNK         0.0819 
     92 H92        21.3068   -1.6719   -7.6580 H         1 UNK         0.0819 
     93 H93        21.6934   -2.1992   -6.0261 H         1 UNK         0.0819 
     94 H94        22.5073   -0.3789   -4.5318 H         1 UNK         0.3041 
     95 H95        24.9534    1.9671   -3.3962 H         1 UNK         0.0784 
     96 H96        22.7736    3.1950   -3.5423 H         1 UNK         0.0793 
     97 H97        21.9280    1.7746   -2.9432 H         1 UNK         0.0793 
     98 H98        23.0899    2.6159   -1.9166 H         1 UNK         0.0793 
     99 H99        23.5645    0.1687   -1.8216 H         1 UNK         0.3024 
    100 H100       24.9216   -1.4371   -0.7902 H         1 UNK         0.1171 
    101 H101       23.1020   -2.6067   -2.0745 H         1 UNK         0.0786 
    102 H102       24.1813   -3.7861   -1.3495 H         1 UNK         0.0786 
    103 H103       24.3005   -3.4251   -3.0695 H         1 UNK         0.0786 
    104 H104       26.9562   -2.2846   -2.6915 H         1 UNK         0.2977 
    105 H105       26.6936   -0.3764   -5.2684 H         1 UNK         0.3127 
    106 H106       29.1879    0.4598   -6.2649 H         1 UNK         0.0770 
    107 H107       27.1152    2.0206   -4.6389 H         1 UNK         0.0814 
    108 H108       28.8159    2.4409   -4.7997 H         1 UNK         0.0814 
    109 H109       28.3571    0.9566   -3.9779 H         1 UNK         0.0814 
    110 H110       25.9277    1.4333   -7.2672 H         1 UNK         0.2983 
    111 H111       26.7019    3.6040   -8.9681 H         1 UNK         0.0947 
    112 H112       24.4154    3.2776   -9.9323 H         1 UNK         0.0806 
    113 H113       24.3699    3.2750   -8.1769 H         1 UNK         0.0806 
    114 H114       24.2542    1.7561   -9.0646 H         1 UNK         0.0806 
    115 H115       26.9068    0.1225   -9.3951 H         1 UNK         0.3000 
    116 H116       27.2461    0.3266  -12.3394 H         1 UNK         0.0850 
    117 H117       27.2059   -2.1482  -12.2557 H         1 UNK         0.0810 
    118 H118       25.7764   -1.4818  -11.4816 H         1 UNK         0.0810 
    119 H119       27.0905   -2.1240  -10.5024 H         1 UNK         0.0810 
    120 H120       28.9746   -0.8718   -9.4088 H         1 UNK         0.3040 
    121 H121       31.6036   -0.6492  -10.8494 H         1 UNK         0.0766 
    122 H122       32.3669   -2.3948   -9.2457 H         1 UNK         0.0812 
    123 H123       31.0504   -2.9943  -10.2455 H         1 UNK         0.0812 
    124 H124       30.7485   -2.5201   -8.5771 H         1 UNK         0.0812 
    125 H125       31.9908    1.4821  -10.3482 H         1 UNK         0.3205 
    126 H126       31.4784    2.6926   -7.7956 H         1 UNK         0.0754 
    127 H127       33.1212    3.6338  -10.2047 H         1 UNK         0.0769 
    128 H128       32.6749    4.6314   -8.8269 H         1 UNK         0.0769 
    129 H129       31.4245    3.9939   -9.8812 H         1 UNK         0.0769 
    130 H130       32.5126    1.2220   -6.3461 H         1 UNK         0.2981 
    131 H131       35.2596    0.7589   -6.1105 H         1 UNK         0.0541 
    132 H132       36.9143    3.4586   -4.4952 H         1 UNK         0.3459 
    133 H133       37.0157    1.7989   -5.0219 H         1 UNK         0.3459 
    134 H134       33.1775    1.0300   -3.8761 H         1 UNK         0.0612 
    135 H135       34.7713    0.3541   -3.6619 H         1 UNK         0.0612 
    136 H136       31.6558   -0.8153   -3.2557 H         1 UNK         0.0624 
    137 H137       31.1175   -0.3877   -4.8649 H         1 UNK         0.0624 
@<TRIPOS>BOND
     1    1    2 1    
     2    1   72 1    
     3    1   73 1    
     4    1   74 1    
     5    2    3 2    
     6    2    4 am   BACKBONE|DICT|INTERRES
     7    4    5 1    
     8    4   75 1    
     9    5    6 1    
    10    5   35 1    
    11    5   76 1    
    12    6    7 1    
    13    6   77 1    
    14    6   78 1    
    15    7    8 1    
    16    8    9 1    
    17    8   79 1    
    18    8   80 1    
    19    9   10 ar   
    20    9   14 ar   
    21   10   11 ar   
    22   10   81 1    
    23   11   12 ar   
    24   11   71 1    
    25   12   13 ar   
    26   12   82 1    
    27   13   14 ar   
    28   13   15 1    
    29   14   83 1    
    30   15   16 1    
    31   15   84 1    
    32   15   85 1    
    33   16   17 1    
    34   17   18 1    
    35   17   86 1    
    36   17   87 1    
    37   18   19 1    
    38   18   37 1    
    39   18   88 1    
    40   19   20 am   BACKBONE|DICT|INTERRES
    41   19   89 1    
    42   20   21 2    
    43   20   22 1    
    44   22   23 1    
    45   22   24 1    
    46   22   90 1    
    47   23   91 1    
    48   23   92 1    
    49   23   93 1    
    50   24   25 am   BACKBONE|DICT|INTERRES
    51   24   94 1    
    52   25   26 2    
    53   25   27 1    
    54   27   28 1    
    55   27   29 1    
    56   27   95 1    
    57   28   96 1    
    58   28   97 1    
    59   28   98 1    
    60   29   30 am   BACKBONE|DICT|INTERRES
    61   29   99 1    
    62   30   31 2    
    63   30   32 1    
    64   32   33 1    
    65   32   34 1    
    66   32  100 1    
    67   33  101 1    
    68   33  102 1    
    69   33  103 1    
    70   34   35 am   BACKBONE|DICT|INTERRES
    71   34  104 1    
    72   35   36 2    
    73   37   38 2    
    74   37   39 am   BACKBONE|DICT|INTERRES
    75   39   40 1    
    76   39  105 1    
    77   40   41 1    
    78   40   42 1    
    79   40  106 1    
    80   41  107 1    
    81   41  108 1    
    82   41  109 1    
    83   42   43 2    
    84   42   44 am   BACKBONE|DICT|INTERRES
    85   44   45 1    
    86   44  110 1    
    87   45   46 1    
    88   45   47 1    
    89   45  111 1    
    90   46  112 1    
    91   46  113 1    
    92   46  114 1    
    93   47   48 2    
    94   47   49 am   BACKBONE|DICT|INTERRES
    95   49   50 1    
    96   49  115 1    
    97   50   51 1    
    98   50   52 1    
    99   50  116 1    
   100   51  117 1    
   101   51  118 1    
   102   51  119 1    
   103   52   53 2    
   104   52   54 am   BACKBONE|DICT|INTERRES
   105   54   55 1    
   106   54  120 1    
   107   55   56 1    
   108   55   57 1    
   109   55  121 1    
   110   56  122 1    
   111   56  123 1    
   112   56  124 1    
   113   57   58 2    
   114   57   59 am   BACKBONE|DICT|INTERRES
   115   59   60 1    
   116   59  125 1    
   117   60   61 1    
   118   60   62 1    
   119   60  126 1    
   120   61  127 1    
   121   61  128 1    
   122   61  129 1    
   123   62   63 2    
   124   62   64 am   BACKBONE|DICT|INTERRES
   125   64   65 1    
   126   64  130 1    
   127   65   66 1    
   128   65   69 1    
   129   65  131 1    
   130   66   67 am   BACKBONE|DICT|INTERRES
   131   66   68 2    
   132   67  132 1    
   133   67  133 1    
   134   69   70 1    
   135   69  134 1    
   136   69  135 1    
   137   70   71 1    
   138   71  136 1    
   139   71  137 1    
@<TRIPOS>SUBSTRUCTURE
     1 UNK         1 GROUP             0       ****    0 ROOT    
