@<TRIPOS>MOLECULE
3R137
137   139    1
SMALL
USER_CHARGES


@<TRIPOS>ATOM
      1 CA         29.1254   -0.1686   -2.8345 C.3       0 UNK        -0.2020 
      2 C          29.5966   -0.2213   -1.3820 C.2       0 UNK         0.4855 
      3 O          30.2208    0.7301   -0.9171 O.2       0 UNK        -0.5197 
      4 N          29.3417   -1.2996   -0.6273 N.am      1 UNK        -0.4892 
      5 CA         28.5542   -2.4805   -1.0025 C.3       1 UNK         0.0835 
      6 C6         28.7820   -3.6749   -0.0348 C.3       12 UNK        -0.0855 
      7 S7         30.5356   -4.0953    0.2548 S.3       12 UNK        -0.2931 
      8 C8         30.8850   -5.2654   -1.1007 C.3       12 UNK         0.0378 
      9 C9         30.8998   -4.5735   -2.4568 C.ar      12 UNK        -0.0802 
     10 C10        31.7781   -3.5100   -2.6874 C.ar      12 UNK        -0.0944 
     11 C11        31.7649   -2.8275   -3.9051 C.ar      12 UNK        -0.0787 
     12 C12        30.8843   -3.2359   -4.9101 C.ar      12 UNK        -0.0862 
     13 C13        30.0103   -4.3066   -4.6998 C.ar      12 UNK        -0.0733 
     14 C14        30.0236   -4.9747   -3.4710 C.ar      12 UNK        -0.0832 
     15 C15        29.0444   -4.7343   -5.7963 C.3       12 UNK         0.0240 
     16 S16        27.3579   -4.1226   -5.4840 S.3       12 UNK        -0.2522 
     17 C17        27.5759   -2.3201   -5.6512 C.3       12 UNK        -0.0967 
     18 CA         26.6232   -1.6838   -6.6932 C.3       5 UNK         0.0660 
     19 N          25.2104   -1.9133   -6.3972 N.am      5 UNK        -0.4015 
     20 C          24.2346   -1.9793   -7.3147 C.2       4 UNK         0.4946 
     21 O          24.4307   -1.9291   -8.5296 O.2       4 UNK        -0.5353 
     22 CA         22.7895   -2.1380   -6.8024 C.3       4 UNK         0.0277 
     23 CB         22.3647   -3.6149   -6.8532 C.3       4 UNK        -0.1981 
     24 N          22.6057   -1.6339   -5.4401 N.am      4 UNK        -0.4209 
     25 C          22.5942   -0.3369   -5.0988 C.2       3 UNK         0.4942 
     26 O          22.5902    0.5835   -5.9152 O.2       3 UNK        -0.5208 
     27 CA         22.6271   -0.0117   -3.5917 C.3       3 UNK         0.0250 
     28 CB         21.2130    0.3002   -3.0764 C.3       3 UNK        -0.1990 
     29 N          23.2198   -1.0792   -2.7737 N.am      3 UNK        -0.4232 
     30 C          24.4931   -1.4874   -2.8644 C.2       2 UNK         0.4993 
     31 O          25.3217   -0.9723   -3.6199 O.2       2 UNK        -0.5286 
     32 CA         24.8629   -2.7441   -2.0610 C.3       2 UNK         0.0209 
     33 CB         24.3278   -4.0010   -2.7696 C.3       2 UNK        -0.1931 
     34 N          26.3102   -2.8893   -1.8946 N.am      2 UNK        -0.4546 
     35 C          27.0494   -2.1486   -1.0607 C.2       1 UNK         0.5154 
     36 O          26.5811   -1.2755   -0.3249 O.2       1 UNK        -0.5181 
     37 C          26.8650   -0.1707   -6.8018 C.2       5 UNK         0.5014 
     38 O          27.2535    0.2964   -7.8727 O.2       5 UNK        -0.5248 
     39 N          26.6089    0.5519   -5.6966 N.am      6 UNK        -0.4434 
     40 CA         26.7081    2.0073   -5.5171 C.3       6 UNK         0.0363 
     41 CB         25.3760    2.6646   -5.9386 C.3       6 UNK        -0.1936 
     42 C          27.9526    2.6283   -6.1880 C.2       6 UNK         0.5081 
     43 O          29.0714    2.3635   -5.7465 O.2       6 UNK        -0.5248 
     44 N          27.7296    3.4093   -7.2520 N.am      7 UNK        -0.4718 
     45 CA         28.7529    3.9516   -8.1480 C.3       7 UNK         0.0273 
     46 CB         28.6961    5.4893   -8.0938 C.3       7 UNK        -0.1935 
     47 C          28.5797    3.4247   -9.5875 C.2       7 UNK         0.5018 
     48 O          29.1864    3.9781  -10.5063 O.2       7 UNK        -0.5186 
     49 N          27.7555    2.3812   -9.7730 N.am      8 UNK        -0.4240 
     50 CA         27.6242    1.6426  -11.0319 C.3       8 UNK         0.0235 
     51 CB         26.2472    0.9609  -11.0984 C.3       8 UNK        -0.2000 
     52 C          28.7586    0.6146  -11.1660 C.2       8 UNK         0.4941 
     53 O          29.3162    0.4594  -12.2535 O.2       8 UNK        -0.5273 
     54 N          29.1087   -0.0303  -10.0440 N.am      9 UNK        -0.4262 
     55 CA         30.3552   -0.7721   -9.8593 C.3       9 UNK         0.0264 
     56 CB         30.2531   -1.5953   -8.5636 C.3       9 UNK        -0.1955 
     57 C          31.5423    0.2027   -9.7760 C.2       9 UNK         0.5031 
     58 O          31.3644    1.3369   -9.3256 O.2       9 UNK        -0.5390 
     59 N          32.7401   -0.2622  -10.1572 N.am      10 UNK        -0.4204 
     60 CA         33.9794    0.5308  -10.1780 C.3       10 UNK         0.0237 
     61 CB         35.1262   -0.3293  -10.7340 C.3       10 UNK        -0.1985 
     62 C          34.3746    1.1404   -8.8182 C.2       10 UNK         0.4970 
     63 O          34.9431    2.2325   -8.7891 O.2       10 UNK        -0.4914 
     64 N          34.0490    0.4325   -7.7319 N.am      11 UNK        -0.4285 
     65 CA         34.1867    0.8832   -6.3405 C.3       11 UNK         0.1007 
     66 C          32.9056    1.5552   -5.7587 C.2       11 UNK         0.5703 
     67 N          31.8260    1.7189   -6.5141 N.am      11 UNK        -0.7361 
     68 O          32.8943    1.9396   -4.5919 O.2       11 UNK        -0.4986 
     69 C69        34.7296   -0.2581   -5.4353 C.3       12 UNK        -0.0947 
     70 S70        33.7794   -1.8163   -5.5280 S.3       12 UNK        -0.2240 
     71 C71        32.6594   -1.6149   -4.1097 C.3       12 UNK         0.0194 
     72 H72        29.5549    0.6949   -3.3437 H         1 UNK         0.0906 
     73 H73        29.4367   -1.0545   -3.3853 H         1 UNK         0.0906 
     74 H74        28.0410   -0.0764   -2.8883 H         1 UNK         0.0906 
     75 H75        29.6711   -1.3037    0.3271 H         1 UNK         0.3140 
     76 H76        28.8657   -2.7895   -2.0001 H         1 UNK         0.1085 
     77 H77        28.3441   -3.4572    0.9418 H         1 UNK         0.0836 
     78 H78        28.2664   -4.5661   -0.3982 H         1 UNK         0.0836 
     79 H79        31.8607   -5.7221   -0.9291 H         1 UNK         0.0731 
     80 H80        30.1563   -6.0773   -1.0766 H         1 UNK         0.0731 
     81 H81        32.4475   -3.1927   -1.8992 H         1 UNK         0.1312 
     82 H82        30.8778   -2.7090   -5.8536 H         1 UNK         0.1406 
     83 H83        29.3398   -5.7961   -3.3034 H         1 UNK         0.1631 
     84 H84        29.0194   -5.8234   -5.8545 H         1 UNK         0.0717 
     85 H85        29.3833   -4.3850   -6.7729 H         1 UNK         0.0717 
     86 H86        27.4422   -1.8857   -4.6615 H         1 UNK         0.0934 
     87 H87        28.6055   -2.1015   -5.9312 H         1 UNK         0.0934 
     88 H88        26.8564   -2.1263   -7.6645 H         1 UNK         0.0739 
     89 H89        24.9653   -1.8959   -5.4160 H         1 UNK         0.3093 
     90 H90        22.1386   -1.5695   -7.4704 H         1 UNK         0.0818 
     91 H91        21.3231   -3.7397   -6.5565 H         1 UNK         0.0819 
     92 H92        22.4610   -4.0129   -7.8645 H         1 UNK         0.0819 
     93 H93        22.9787   -4.2363   -6.1998 H         1 UNK         0.0819 
     94 H94        22.5579   -2.3212   -4.7031 H         1 UNK         0.3041 
     95 H95        23.2428    0.8819   -3.4676 H         1 UNK         0.0784 
     96 H96        20.7592    1.1102   -3.6496 H         1 UNK         0.0793 
     97 H97        20.5527   -0.5644   -3.1558 H         1 UNK         0.0793 
     98 H98        21.2309    0.6161   -2.0331 H         1 UNK         0.0793 
     99 H99        22.5972   -1.5545   -2.1352 H         1 UNK         0.3024 
    100 H100       24.4052   -2.6692   -1.0715 H         1 UNK         0.1171 
    101 H101       23.2409   -3.9768   -2.8570 H         1 UNK         0.0786 
    102 H102       24.5803   -4.9052   -2.2152 H         1 UNK         0.0786 
    103 H103       24.7347   -4.1041   -3.7766 H         1 UNK         0.0786 
    104 H104       26.7612   -3.5724   -2.4860 H         1 UNK         0.2977 
    105 H105       26.2635    0.0459   -4.8830 H         1 UNK         0.3127 
    106 H106       26.8330    2.1770   -4.4465 H         1 UNK         0.0770 
    107 H107       25.1112    2.4334   -6.9711 H         1 UNK         0.0814 
    108 H108       25.4099    3.7494   -5.8287 H         1 UNK         0.0814 
    109 H109       24.5594    2.3144   -5.3081 H         1 UNK         0.0814 
    110 H110       26.7710    3.5658   -7.5308 H         1 UNK         0.2983 
    111 H111       29.7466    3.6318   -7.8260 H         1 UNK         0.0947 
    112 H112       29.4821    5.9342   -8.7054 H         1 UNK         0.0806 
    113 H113       28.8370    5.8538   -7.0761 H         1 UNK         0.0806 
    114 H114       27.7417    5.8707   -8.4584 H         1 UNK         0.0806 
    115 H115       27.3707    1.9247   -8.9512 H         1 UNK         0.3000 
    116 H116       27.6984    2.3416  -11.8680 H         1 UNK         0.0850 
    117 H117       26.1223    0.4315  -12.0438 H         1 UNK         0.0810 
    118 H118       25.4407    1.6905  -11.0263 H         1 UNK         0.0810 
    119 H119       26.1107    0.2321  -10.2983 H         1 UNK         0.0810 
    120 H120       28.5679    0.1603   -9.2043 H         1 UNK         0.3040 
    121 H121       30.4956   -1.4444  -10.7082 H         1 UNK         0.0766 
    122 H122       31.1509   -2.1944   -8.4059 H         1 UNK         0.0812 
    123 H123       29.4073   -2.2824   -8.5962 H         1 UNK         0.0812 
    124 H124       30.1303   -0.9529   -7.6899 H         1 UNK         0.0812 
    125 H125       32.8059   -1.2104  -10.5000 H         1 UNK         0.3205 
    126 H126       33.8154    1.3638  -10.8649 H         1 UNK         0.0754 
    127 H127       36.0545    0.2420  -10.7833 H         1 UNK         0.0769 
    128 H128       34.9096   -0.6767  -11.7444 H         1 UNK         0.0769 
    129 H129       35.3150   -1.2038  -10.1098 H         1 UNK         0.0769 
    130 H130       33.5837   -0.4543   -7.8529 H         1 UNK         0.2981 
    131 H131       34.9393    1.6730   -6.3133 H         1 UNK         0.0541 
    132 H132       31.8250    1.4869   -7.5024 H         1 UNK         0.3459 
    133 H133       30.9821    2.1032   -6.1018 H         1 UNK         0.3459 
    134 H134       34.8112    0.0659   -4.3963 H         1 UNK         0.0612 
    135 H135       35.7504   -0.4920   -5.7408 H         1 UNK         0.0612 
    136 H136       32.0253   -0.7419   -4.2641 H         1 UNK         0.0624 
    137 H137       33.2513   -1.4161   -3.2149 H         1 UNK         0.0624 
@<TRIPOS>BOND
     1    1    2 1    
     2    1   72 1    
     3    1   73 1    
     4    1   74 1    
     5    2    3 2    
     6    2    4 am   BACKBONE|DICT|INTERRES
     7    4    5 1    
     8    4   75 1    
     9    5    6 1    
    10    5   35 1    
    11    5   76 1    
    12    6    7 1    
    13    6   77 1    
    14    6   78 1    
    15    7    8 1    
    16    8    9 1    
    17    8   79 1    
    18    8   80 1    
    19    9   10 ar   
    20    9   14 ar   
    21   10   11 ar   
    22   10   81 1    
    23   11   12 ar   
    24   11   71 1    
    25   12   13 ar   
    26   12   82 1    
    27   13   14 ar   
    28   13   15 1    
    29   14   83 1    
    30   15   16 1    
    31   15   84 1    
    32   15   85 1    
    33   16   17 1    
    34   17   18 1    
    35   17   86 1    
    36   17   87 1    
    37   18   19 1    
    38   18   37 1    
    39   18   88 1    
    40   19   20 am   BACKBONE|DICT|INTERRES
    41   19   89 1    
    42   20   21 2    
    43   20   22 1    
    44   22   23 1    
    45   22   24 1    
    46   22   90 1    
    47   23   91 1    
    48   23   92 1    
    49   23   93 1    
    50   24   25 am   BACKBONE|DICT|INTERRES
    51   24   94 1    
    52   25   26 2    
    53   25   27 1    
    54   27   28 1    
    55   27   29 1    
    56   27   95 1    
    57   28   96 1    
    58   28   97 1    
    59   28   98 1    
    60   29   30 am   BACKBONE|DICT|INTERRES
    61   29   99 1    
    62   30   31 2    
    63   30   32 1    
    64   32   33 1    
    65   32   34 1    
    66   32  100 1    
    67   33  101 1    
    68   33  102 1    
    69   33  103 1    
    70   34   35 am   BACKBONE|DICT|INTERRES
    71   34  104 1    
    72   35   36 2    
    73   37   38 2    
    74   37   39 am   BACKBONE|DICT|INTERRES
    75   39   40 1    
    76   39  105 1    
    77   40   41 1    
    78   40   42 1    
    79   40  106 1    
    80   41  107 1    
    81   41  108 1    
    82   41  109 1    
    83   42   43 2    
    84   42   44 am   BACKBONE|DICT|INTERRES
    85   44   45 1    
    86   44  110 1    
    87   45   46 1    
    88   45   47 1    
    89   45  111 1    
    90   46  112 1    
    91   46  113 1    
    92   46  114 1    
    93   47   48 2    
    94   47   49 am   BACKBONE|DICT|INTERRES
    95   49   50 1    
    96   49  115 1    
    97   50   51 1    
    98   50   52 1    
    99   50  116 1    
   100   51  117 1    
   101   51  118 1    
   102   51  119 1    
   103   52   53 2    
   104   52   54 am   BACKBONE|DICT|INTERRES
   105   54   55 1    
   106   54  120 1    
   107   55   56 1    
   108   55   57 1    
   109   55  121 1    
   110   56  122 1    
   111   56  123 1    
   112   56  124 1    
   113   57   58 2    
   114   57   59 am   BACKBONE|DICT|INTERRES
   115   59   60 1    
   116   59  125 1    
   117   60   61 1    
   118   60   62 1    
   119   60  126 1    
   120   61  127 1    
   121   61  128 1    
   122   61  129 1    
   123   62   63 2    
   124   62   64 am   BACKBONE|DICT|INTERRES
   125   64   65 1    
   126   64  130 1    
   127   65   66 1    
   128   65   69 1    
   129   65  131 1    
   130   66   67 am   BACKBONE|DICT|INTERRES
   131   66   68 2    
   132   67  132 1    
   133   67  133 1    
   134   69   70 1    
   135   69  134 1    
   136   69  135 1    
   137   70   71 1    
   138   71  136 1    
   139   71  137 1    
@<TRIPOS>SUBSTRUCTURE
     1 UNK         1 GROUP             0       ****    0 ROOT    
