@<TRIPOS>MOLECULE
3R137
137   139    1
SMALL
USER_CHARGES


@<TRIPOS>ATOM
      1 CA         31.5882    0.7768   -0.3314 C.3       0 UNK        -0.2020 
      2 C          31.1208   -0.6181   -0.7132 C.2       0 UNK         0.4855 
      3 O          31.9285   -1.4564   -1.1112 O.2       0 UNK        -0.5197 
      4 N          29.8160   -0.8677   -0.5835 N.am      1 UNK        -0.4892 
      5 CA         29.1366   -2.1200   -0.9037 C.3       1 UNK         0.0835 
      6 C6         29.4480   -3.2283    0.1369 C.3       12 UNK        -0.0855 
      7 S7         28.8852   -4.8918   -0.3589 S.3       12 UNK        -0.2931 
      8 C8         30.3363   -5.5315   -1.2522 C.3       12 UNK         0.0378 
      9 C9         30.3683   -5.0703   -2.7032 C.ar      12 UNK        -0.0802 
     10 C10        31.3543   -4.1830   -3.1480 C.ar      12 UNK        -0.0944 
     11 C11        31.4320   -3.8298   -4.4989 C.ar      12 UNK        -0.0787 
     12 C12        30.5078   -4.3652   -5.4017 C.ar      12 UNK        -0.0862 
     13 C13        29.4978   -5.2312   -4.9682 C.ar      12 UNK        -0.0733 
     14 C14        29.4396   -5.5815   -3.6159 C.ar      12 UNK        -0.0832 
     15 C15        28.5079   -5.8533   -5.9515 C.3       12 UNK         0.0240 
     16 S16        27.9543   -4.7267   -7.2755 S.3       12 UNK        -0.2522 
     17 C17        26.8841   -3.5826   -6.3475 C.3       12 UNK        -0.0967 
     18 CA         26.4515   -2.3734   -7.2146 C.3       5 UNK         0.0660 
     19 N          25.1617   -1.8281   -6.7875 N.am      5 UNK        -0.4015 
     20 C          24.4077   -0.9950   -7.5179 C.2       4 UNK         0.4946 
     21 O          24.7050   -0.6137   -8.6495 O.2       4 UNK        -0.5353 
     22 CA         23.1176   -0.4745   -6.8623 C.3       4 UNK         0.0277 
     23 CB         21.9739   -1.4863   -7.0372 C.3       4 UNK        -0.1981 
     24 N          23.2889   -0.1627   -5.4408 N.am      4 UNK        -0.4209 
     25 C          24.0630    0.8299   -4.9804 C.2       3 UNK         0.4942 
     26 O          24.6893    1.6027   -5.7040 O.2       3 UNK        -0.5208 
     27 CA         24.1996    0.9537   -3.4543 C.3       3 UNK         0.0250 
     28 CB         23.0008    1.7137   -2.8641 C.3       3 UNK        -0.1990 
     29 N          24.3728   -0.3226   -2.7481 N.am      3 UNK        -0.4232 
     30 C          25.3334   -1.2211   -3.0058 C.2       2 UNK         0.4993 
     31 O          26.0997   -1.1574   -3.9688 O.2       2 UNK        -0.5286 
     32 CA         25.4667   -2.4049   -2.0378 C.3       2 UNK         0.0209 
     33 CB         24.8751   -3.6802   -2.6595 C.3       2 UNK        -0.1931 
     34 N          26.8764   -2.6353   -1.7155 N.am      2 UNK        -0.4546 
     35 C          27.6358   -1.7922   -1.0045 C.2       1 UNK         0.5154 
     36 O          27.1940   -0.7834   -0.4428 O.2       1 UNK        -0.5181 
     37 C          27.5275   -1.2720   -7.2569 C.2       5 UNK         0.5014 
     38 O          28.2526   -1.1649   -8.2457 O.2       5 UNK        -0.5248 
     39 N          27.5691   -0.4373   -6.2091 N.am      6 UNK        -0.4434 
     40 CA         28.4576    0.7173   -6.0912 C.3       6 UNK         0.0363 
     41 CB         28.3225    1.3288   -4.6874 C.3       6 UNK        -0.1936 
     42 C          28.2248    1.7796   -7.1768 C.2       6 UNK         0.5081 
     43 O          29.1980    2.3667   -7.6475 O.2       6 UNK        -0.5248 
     44 N          26.9579    1.9916   -7.5609 N.am      7 UNK        -0.4718 
     45 CA         26.5597    2.8711   -8.6613 C.3       7 UNK         0.0273 
     46 CB         25.0585    3.1829   -8.5529 C.3       7 UNK        -0.1935 
     47 C          26.8890    2.2889  -10.0465 C.2       7 UNK         0.5018 
     48 O          27.2532    3.0531  -10.9410 O.2       7 UNK        -0.5186 
     49 N          26.7417    0.9651  -10.2107 N.am      8 UNK        -0.4240 
     50 CA         27.0726    0.2444  -11.4440 C.3       8 UNK         0.0235 
     51 CB         26.4604   -1.1655  -11.4074 C.3       8 UNK        -0.2000 
     52 C          28.5878    0.1742  -11.6972 C.2       8 UNK         0.4941 
     53 O          29.0180    0.3655  -12.8361 O.2       8 UNK        -0.5273 
     54 N          29.3580   -0.0959  -10.6360 N.am      9 UNK        -0.4262 
     55 CA         30.8187   -0.0708  -10.6182 C.3       9 UNK         0.0264 
     56 CB         31.3201   -1.2339   -9.7367 C.3       9 UNK        -0.1955 
     57 C          31.3018    1.3227  -10.1671 C.2       9 UNK         0.5031 
     58 O          30.8655    2.3274  -10.7328 O.2       9 UNK        -0.5390 
     59 N          32.2014    1.3706   -9.1777 N.am      10 UNK        -0.4204 
     60 CA         32.7290    2.5936   -8.5703 C.3       10 UNK         0.0237 
     61 CB         33.8107    3.2233   -9.4747 C.3       10 UNK        -0.1985 
     62 C          33.2346    2.2808   -7.1536 C.2       10 UNK         0.4970 
     63 O          34.3586    2.6464   -6.8053 O.2       10 UNK        -0.4914 
     64 N          32.4148    1.5613   -6.3766 N.am      11 UNK        -0.4285 
     65 CA         32.7731    1.0613   -5.0357 C.3       11 UNK         0.1007 
     66 C          32.7706    2.1485   -3.9241 C.2       11 UNK         0.5703 
     67 N          32.1372    3.2987   -4.1232 N.am      11 UNK        -0.7361 
     68 O          33.3686    1.9499   -2.8704 O.2       11 UNK        -0.4986 
     69 C69        31.9234   -0.1690   -4.6161 C.3       12 UNK        -0.0947 
     70 S70        31.9207   -1.4715   -5.8949 S.3       12 UNK        -0.2240 
     71 C71        32.5526   -2.9297   -5.0046 C.3       12 UNK         0.0194 
     72 H72        31.2533    1.5042   -1.0703 H         1 UNK         0.0906 
     73 H73        31.1960    1.0659    0.6433 H         1 UNK         0.0906 
     74 H74        32.6764    0.8192   -0.2842 H         1 UNK         0.0906 
     75 H75        29.1741   -0.1446   -0.2757 H         1 UNK         0.3140 
     76 H76        29.4765   -2.4355   -1.8921 H         1 UNK         0.1085 
     77 H77        28.9953   -2.9832    1.0996 H         1 UNK         0.0836 
     78 H78        30.5205   -3.2785    0.3280 H         1 UNK         0.0836 
     79 H79        31.2523   -5.2527   -0.7289 H         1 UNK         0.0731 
     80 H80        30.3013   -6.6218   -1.2325 H         1 UNK         0.0731 
     81 H81        32.0785   -3.7891   -2.4476 H         1 UNK         0.1312 
     82 H82        30.5851   -4.1096   -6.4496 H         1 UNK         0.1406 
     83 H83        28.6839   -6.2748   -3.2710 H         1 UNK         0.1631 
     84 H84        27.6285   -6.2298   -5.4264 H         1 UNK         0.0717 
     85 H85        28.9848   -6.7186   -6.4133 H         1 UNK         0.0717 
     86 H86        26.0091   -4.1557   -6.0371 H         1 UNK         0.0934 
     87 H87        27.3791   -3.2653   -5.4266 H         1 UNK         0.0934 
     88 H88        26.3085   -2.7232   -8.2398 H         1 UNK         0.0739 
     89 H89        24.8860   -2.0191   -5.8355 H         1 UNK         0.3093 
     90 H90        22.8376    0.4476   -7.3766 H         1 UNK         0.0818 
     91 H91        21.0329   -1.0913   -6.6540 H         1 UNK         0.0819 
     92 H92        21.8191   -1.7194   -8.0918 H         1 UNK         0.0819 
     93 H93        22.1787   -2.4260   -6.5228 H         1 UNK         0.0819 
     94 H94        22.8067   -0.7482   -4.7743 H         1 UNK         0.3041 
     95 H95        25.0979    1.5443   -3.2628 H         1 UNK         0.0784 
     96 H96        22.8617    2.6729   -3.3652 H         1 UNK         0.0793 
     97 H97        22.0716    1.1525   -2.9709 H         1 UNK         0.0793 
     98 H98        23.1465    1.9241   -1.8043 H         1 UNK         0.0793 
     99 H99        23.7794   -0.4684   -1.9438 H         1 UNK         0.3024 
    100 H100       24.9333   -2.1789   -1.1117 H         1 UNK         0.1171 
    101 H101       23.8210   -3.5442   -2.9051 H         1 UNK         0.0786 
    102 H102       24.9397   -4.5224   -1.9702 H         1 UNK         0.0786 
    103 H103       25.3920   -3.9605   -3.5778 H         1 UNK         0.0786 
    104 H104       27.3134   -3.4436   -2.1344 H         1 UNK         0.2977 
    105 H105       26.9552   -0.6242   -5.4151 H         1 UNK         0.3127 
    106 H106       29.4750    0.3472   -6.2172 H         1 UNK         0.0770 
    107 H107       27.3210    1.7259   -4.5189 H         1 UNK         0.0814 
    108 H108       29.0281    2.1490   -4.5486 H         1 UNK         0.0814 
    109 H109       28.5213    0.5910   -3.9097 H         1 UNK         0.0814 
    110 H110       26.2098    1.5315   -7.0511 H         1 UNK         0.2983 
    111 H111       27.1099    3.8094   -8.5606 H         1 UNK         0.0947 
    112 H112       24.7369    3.8457   -9.3574 H         1 UNK         0.0806 
    113 H113       24.8245    3.6791   -7.6109 H         1 UNK         0.0806 
    114 H114       24.4535    2.2772   -8.6123 H         1 UNK         0.0806 
    115 H115       26.3677    0.4146   -9.4451 H         1 UNK         0.3000 
    116 H116       26.6226    0.7848  -12.2797 H         1 UNK         0.0850 
    117 H117       26.6872   -1.7137  -12.3227 H         1 UNK         0.0810 
    118 H118       25.3750   -1.1231  -11.3155 H         1 UNK         0.0810 
    119 H119       26.8435   -1.7517  -10.5716 H         1 UNK         0.0810 
    120 H120       28.9037   -0.2859   -9.7441 H         1 UNK         0.3040 
    121 H121       31.2033   -0.2292  -11.6277 H         1 UNK         0.0766 
    122 H122       30.9440   -2.1888  -10.1047 H         1 UNK         0.0812 
    123 H123       30.9851   -1.1337   -8.7039 H         1 UNK         0.0812 
    124 H124       32.4085   -1.3035   -9.7386 H         1 UNK         0.0812 
    125 H125       32.5179    0.5022   -8.7675 H         1 UNK         0.3205 
    126 H126       31.9119    3.3096   -8.4570 H         1 UNK         0.0754 
    127 H127       34.2037    4.1413   -9.0359 H         1 UNK         0.0769 
    128 H128       33.4107    3.4843  -10.4545 H         1 UNK         0.0769 
    129 H129       34.6511    2.5450   -9.6266 H         1 UNK         0.0769 
    130 H130       31.4946    1.3259   -6.7181 H         1 UNK         0.2981 
    131 H131       33.8064    0.7133   -5.0963 H         1 UNK         0.0541 
    132 H132       31.6595    3.4778   -4.9913 H         1 UNK         0.3459 
    133 H133       32.1530    4.0006   -3.4006 H         1 UNK         0.3459 
    134 H134       30.8934    0.1196   -4.4127 H         1 UNK         0.0612 
    135 H135       32.3022   -0.5835   -3.6811 H         1 UNK         0.0612 
    136 H136       33.1700   -3.5077   -5.6933 H         1 UNK         0.0624 
    137 H137       33.2135   -2.6211   -4.1935 H         1 UNK         0.0624 
@<TRIPOS>BOND
     1    1    2 1    
     2    1   72 1    
     3    1   73 1    
     4    1   74 1    
     5    2    3 2    
     6    2    4 am   BACKBONE|DICT|INTERRES
     7    4    5 1    
     8    4   75 1    
     9    5    6 1    
    10    5   35 1    
    11    5   76 1    
    12    6    7 1    
    13    6   77 1    
    14    6   78 1    
    15    7    8 1    
    16    8    9 1    
    17    8   79 1    
    18    8   80 1    
    19    9   10 ar   
    20    9   14 ar   
    21   10   11 ar   
    22   10   81 1    
    23   11   12 ar   
    24   11   71 1    
    25   12   13 ar   
    26   12   82 1    
    27   13   14 ar   
    28   13   15 1    
    29   14   83 1    
    30   15   16 1    
    31   15   84 1    
    32   15   85 1    
    33   16   17 1    
    34   17   18 1    
    35   17   86 1    
    36   17   87 1    
    37   18   19 1    
    38   18   37 1    
    39   18   88 1    
    40   19   20 am   BACKBONE|DICT|INTERRES
    41   19   89 1    
    42   20   21 2    
    43   20   22 1    
    44   22   23 1    
    45   22   24 1    
    46   22   90 1    
    47   23   91 1    
    48   23   92 1    
    49   23   93 1    
    50   24   25 am   BACKBONE|DICT|INTERRES
    51   24   94 1    
    52   25   26 2    
    53   25   27 1    
    54   27   28 1    
    55   27   29 1    
    56   27   95 1    
    57   28   96 1    
    58   28   97 1    
    59   28   98 1    
    60   29   30 am   BACKBONE|DICT|INTERRES
    61   29   99 1    
    62   30   31 2    
    63   30   32 1    
    64   32   33 1    
    65   32   34 1    
    66   32  100 1    
    67   33  101 1    
    68   33  102 1    
    69   33  103 1    
    70   34   35 am   BACKBONE|DICT|INTERRES
    71   34  104 1    
    72   35   36 2    
    73   37   38 2    
    74   37   39 am   BACKBONE|DICT|INTERRES
    75   39   40 1    
    76   39  105 1    
    77   40   41 1    
    78   40   42 1    
    79   40  106 1    
    80   41  107 1    
    81   41  108 1    
    82   41  109 1    
    83   42   43 2    
    84   42   44 am   BACKBONE|DICT|INTERRES
    85   44   45 1    
    86   44  110 1    
    87   45   46 1    
    88   45   47 1    
    89   45  111 1    
    90   46  112 1    
    91   46  113 1    
    92   46  114 1    
    93   47   48 2    
    94   47   49 am   BACKBONE|DICT|INTERRES
    95   49   50 1    
    96   49  115 1    
    97   50   51 1    
    98   50   52 1    
    99   50  116 1    
   100   51  117 1    
   101   51  118 1    
   102   51  119 1    
   103   52   53 2    
   104   52   54 am   BACKBONE|DICT|INTERRES
   105   54   55 1    
   106   54  120 1    
   107   55   56 1    
   108   55   57 1    
   109   55  121 1    
   110   56  122 1    
   111   56  123 1    
   112   56  124 1    
   113   57   58 2    
   114   57   59 am   BACKBONE|DICT|INTERRES
   115   59   60 1    
   116   59  125 1    
   117   60   61 1    
   118   60   62 1    
   119   60  126 1    
   120   61  127 1    
   121   61  128 1    
   122   61  129 1    
   123   62   63 2    
   124   62   64 am   BACKBONE|DICT|INTERRES
   125   64   65 1    
   126   64  130 1    
   127   65   66 1    
   128   65   69 1    
   129   65  131 1    
   130   66   67 am   BACKBONE|DICT|INTERRES
   131   66   68 2    
   132   67  132 1    
   133   67  133 1    
   134   69   70 1    
   135   69  134 1    
   136   69  135 1    
   137   70   71 1    
   138   71  136 1    
   139   71  137 1    
@<TRIPOS>SUBSTRUCTURE
     1 UNK         1 GROUP             0       ****    0 ROOT    
