@<TRIPOS>MOLECULE
3R137
137   139    1
SMALL
USER_CHARGES


@<TRIPOS>ATOM
      1 CA         27.8402   -5.9537    0.5228 C.3       0 UNK        -0.2020 
      2 C          27.7587   -4.6713   -0.2908 C.2       0 UNK         0.4855 
      3 O          27.5655   -3.5947    0.2764 O.2       0 UNK        -0.5197 
      4 N          27.9024   -4.7713   -1.6182 N.am      1 UNK        -0.4892 
      5 CA         27.8391   -3.6481   -2.5580 C.3       1 UNK         0.0835 
      6 C6         28.5969   -3.9482   -3.8786 C.3       12 UNK        -0.0855 
      7 S7         30.3627   -4.3382   -3.6309 S.3       12 UNK        -0.2931 
      8 C8         31.1674   -3.2216   -4.8387 C.3       12 UNK         0.0378 
      9 C9         31.2282   -1.7392   -4.4577 C.ar      12 UNK        -0.0802 
     10 C10        31.7123   -0.8346   -5.4077 C.ar      12 UNK        -0.0944 
     11 C11        31.8301    0.5269   -5.1168 C.ar      12 UNK        -0.0787 
     12 C12        31.4266    0.9956   -3.8648 C.ar      12 UNK        -0.0862 
     13 C13        30.9033    0.1137   -2.9155 C.ar      12 UNK        -0.0733 
     14 C14        30.8339   -1.2517   -3.2050 C.ar      12 UNK        -0.0832 
     15 C15        30.3710    0.6417   -1.5924 C.3       12 UNK         0.0240 
     16 S16        28.8651    1.6429   -1.8281 S.3       12 UNK        -0.2522 
     17 C17        27.7355    0.4833   -2.6789 C.3       12 UNK        -0.0967 
     18 CA         27.6882    0.6792   -4.2189 C.3       5 UNK         0.0660 
     19 N          26.9999   -0.4171   -4.9115 N.am      5 UNK        -0.4015 
     20 C          27.1146   -0.6533   -6.2288 C.2       4 UNK         0.4946 
     21 O          27.8979   -0.0489   -6.9559 O.2       4 UNK        -0.5353 
     22 CA         26.1622   -1.6728   -6.8774 C.3       4 UNK         0.0277 
     23 CB         26.8438   -3.0292   -7.1161 C.3       4 UNK        -0.1981 
     24 N          24.9189   -1.8483   -6.1250 N.am      4 UNK        -0.4209 
     25 C          23.9203   -0.9525   -6.1369 C.2       3 UNK         0.4942 
     26 O          23.9355    0.0691   -6.8224 O.2       3 UNK        -0.5208 
     27 CA         22.7324   -1.1971   -5.1890 C.3       3 UNK         0.0250 
     28 CB         21.6593   -2.0520   -5.8806 C.3       3 UNK        -0.1990 
     29 N          23.1109   -1.8194   -3.9169 N.am      3 UNK        -0.4232 
     30 C          23.9823   -1.3037   -3.0388 C.2       2 UNK         0.4993 
     31 O          24.5489   -0.2221   -3.2049 O.2       2 UNK        -0.5286 
     32 CA         24.3387   -2.1525   -1.8018 C.3       2 UNK         0.0209 
     33 CB         23.4044   -3.3636   -1.5788 C.3       2 UNK        -0.1931 
     34 N          25.7394   -2.5999   -1.8237 N.am      2 UNK        -0.4546 
     35 C          26.3675   -3.2540   -2.8127 C.2       1 UNK         0.5154 
     36 O          25.8261   -3.5581   -3.8774 O.2       1 UNK        -0.5181 
     37 C          27.0656    2.0298   -4.6224 C.2       5 UNK         0.5014 
     38 O          27.8004    2.9576   -4.9619 O.2       5 UNK        -0.5248 
     39 N          25.7247    2.0966   -4.6338 N.am      6 UNK        -0.4434 
     40 CA         24.9525    3.2605   -5.0795 C.3       6 UNK         0.0363 
     41 CB         23.4583    3.0255   -4.8069 C.3       6 UNK        -0.1936 
     42 C          25.1937    3.6193   -6.5583 C.2       6 UNK         0.5081 
     43 O          25.3458    4.7989   -6.8765 O.2       6 UNK        -0.5248 
     44 N          25.2521    2.6015   -7.4287 N.am      7 UNK        -0.4718 
     45 CA         25.5704    2.7454   -8.8540 C.3       7 UNK         0.0273 
     46 CB         25.0850    1.4930   -9.6021 C.3       7 UNK        -0.1935 
     47 C          27.0670    2.9802   -9.1389 C.2       7 UNK         0.5018 
     48 O          27.3975    3.4142  -10.2432 O.2       7 UNK        -0.5186 
     49 N          27.9324    2.6683   -8.1626 N.am      8 UNK        -0.4240 
     50 CA         29.3985    2.6470   -8.2253 C.3       8 UNK         0.0235 
     51 CB         29.9709    4.0713   -8.3806 C.3       8 UNK        -0.2000 
     52 C          29.9232    1.6556   -9.2845 C.2       8 UNK         0.4941 
     53 O          30.7819    2.0072  -10.0961 O.2       8 UNK        -0.5273 
     54 N          29.3811    0.4336   -9.2567 N.am      9 UNK        -0.4262 
     55 CA         29.7124   -0.6704  -10.1533 C.3       9 UNK         0.0264 
     56 CB         28.4031   -1.3073  -10.6478 C.3       9 UNK        -0.1955 
     57 C          30.5564   -1.7063   -9.4003 C.2       9 UNK         0.5031 
     58 O          30.3287   -1.9239   -8.2101 O.2       9 UNK        -0.5390 
     59 N          31.4961   -2.3441  -10.1150 N.am      10 UNK        -0.4204 
     60 CA         32.4360   -3.3645   -9.6196 C.3       10 UNK         0.0237 
     61 CB         31.6858   -4.6585   -9.2327 C.3       10 UNK        -0.1985 
     62 C          33.3611   -2.8509   -8.4942 C.2       10 UNK         0.4970 
     63 O          33.6768   -3.5951   -7.5639 O.2       10 UNK        -0.4914 
     64 N          33.7630   -1.5779   -8.5967 N.am      11 UNK        -0.4285 
     65 CA         34.6398   -0.8853   -7.6434 C.3       11 UNK         0.1007 
     66 C          36.1178   -1.3627   -7.7030 C.2       11 UNK         0.5703 
     67 N          36.8934   -1.0930   -6.6619 N.am      11 UNK        -0.7361 
     68 O          36.5758   -1.9410   -8.6875 O.2       11 UNK        -0.4986 
     69 C69        34.5055    0.6579   -7.7987 C.3       12 UNK        -0.0947 
     70 S70        34.1837    1.4985   -6.2125 S.3       12 UNK        -0.2240 
     71 C71        32.3625    1.4960   -6.1609 C.3       12 UNK         0.0194 
     72 H72        28.6489   -5.8852    1.2499 H         1 UNK         0.0906 
     73 H73        26.9080   -6.1142    1.0638 H         1 UNK         0.0906 
     74 H74        28.0225   -6.8251   -0.1059 H         1 UNK         0.0906 
     75 H75        28.0546   -5.6784   -2.0364 H         1 UNK         0.3140 
     76 H76        28.3251   -2.7906   -2.0917 H         1 UNK         0.1085 
     77 H77        28.5250   -3.0877   -4.5462 H         1 UNK         0.0836 
     78 H78        28.1400   -4.7877   -4.4062 H         1 UNK         0.0836 
     79 H79        30.6659   -3.3262   -5.8026 H         1 UNK         0.0731 
     80 H80        32.1891   -3.5724   -4.9908 H         1 UNK         0.0731 
     81 H81        32.0012   -1.1955   -6.3835 H         1 UNK         0.1312 
     82 H82        31.4859    2.0516   -3.6384 H         1 UNK         0.1406 
     83 H83        30.4593   -1.9247   -2.4492 H         1 UNK         0.1631 
     84 H84        31.1354    1.2554   -1.1138 H         1 UNK         0.0717 
     85 H85        30.1534   -0.1742   -0.9012 H         1 UNK         0.0717 
     86 H86        28.0463   -0.5321   -2.4423 H         1 UNK         0.0934 
     87 H87        26.7459    0.5996   -2.2362 H         1 UNK         0.0934 
     88 H88        28.7166    0.6822   -4.5842 H         1 UNK         0.0739 
     89 H89        26.2624   -0.8812   -4.3986 H         1 UNK         0.3093 
     90 H90        25.9096   -1.2733   -7.8613 H         1 UNK         0.0818 
     91 H91        27.8320   -2.9021   -7.5608 H         1 UNK         0.0819 
     92 H92        26.9703   -3.5957   -6.1974 H         1 UNK         0.0819 
     93 H93        26.2592   -3.6435   -7.8007 H         1 UNK         0.0819 
     94 H94        24.8774   -2.6361   -5.4859 H         1 UNK         0.3041 
     95 H95        22.2958   -0.2233   -4.9577 H         1 UNK         0.0784 
     96 H96        21.3453   -1.5969   -6.8213 H         1 UNK         0.0793 
     97 H97        22.0251   -3.0539   -6.1093 H         1 UNK         0.0793 
     98 H98        20.7692   -2.1521   -5.2590 H         1 UNK         0.0793 
     99 H99        22.7158   -2.7273   -3.7186 H         1 UNK         0.3024 
    100 H100       24.2322   -1.4874   -0.9431 H         1 UNK         0.1171 
    101 H101       23.6412   -3.8666   -0.6410 H         1 UNK         0.0786 
    102 H102       22.3602   -3.0540   -1.5155 H         1 UNK         0.0786 
    103 H103       23.4886   -4.1054   -2.3741 H         1 UNK         0.0786 
    104 H104       26.2620   -2.4562   -0.9657 H         1 UNK         0.2977 
    105 H105       25.1981    1.2963   -4.2937 H         1 UNK         0.3127 
    106 H106       25.2755    4.1132   -4.4786 H         1 UNK         0.0770 
    107 H107       23.0687    2.1840   -5.3798 H         1 UNK         0.0814 
    108 H108       22.8711    3.9033   -5.0795 H         1 UNK         0.0814 
    109 H109       23.2731    2.8262   -3.7512 H         1 UNK         0.0814 
    110 H110       25.0163    1.6669   -7.1045 H         1 UNK         0.2983 
    111 H111       25.0254    3.6082   -9.2434 H         1 UNK         0.0947 
    112 H112       25.6217    0.6007   -9.2798 H         1 UNK         0.0806 
    113 H113       25.2402    1.5946  -10.6770 H         1 UNK         0.0806 
    114 H114       24.0203    1.3208   -9.4428 H         1 UNK         0.0806 
    115 H115       27.5422    2.2990   -7.3052 H         1 UNK         0.3000 
    116 H116       29.7255    2.2641   -7.2578 H         1 UNK         0.0850 
    117 H117       29.6020    4.7321   -7.5962 H         1 UNK         0.0810 
    118 H118       29.7088    4.5117   -9.3430 H         1 UNK         0.0810 
    119 H119       31.0594    4.0623   -8.3124 H         1 UNK         0.0810 
    120 H120       28.7800    0.1967   -8.4649 H         1 UNK         0.3040 
    121 H121       30.2732   -0.3043  -11.0158 H         1 UNK         0.0766 
    122 H122       28.6016   -2.1371  -11.3272 H         1 UNK         0.0812 
    123 H123       27.7916   -0.5837  -11.1874 H         1 UNK         0.0812 
    124 H124       27.8071   -1.6960   -9.8212 H         1 UNK         0.0812 
    125 H125       31.5953   -2.1019  -11.0919 H         1 UNK         0.3205 
    126 H126       33.0927   -3.6067  -10.4565 H         1 UNK         0.0754 
    127 H127       32.3852   -5.4623   -8.9995 H         1 UNK         0.0769 
    128 H128       31.0521   -5.0086  -10.0475 H         1 UNK         0.0769 
    129 H129       31.0543   -4.5137   -8.3553 H         1 UNK         0.0769 
    130 H130       33.4879   -1.0513   -9.4112 H         1 UNK         0.2981 
    131 H131       34.2855   -1.1728   -6.6522 H         1 UNK         0.0541 
    132 H132       37.8593   -1.3805   -6.6801 H         1 UNK         0.3459 
    133 H133       36.5314   -0.5948   -5.8634 H         1 UNK         0.3459 
    134 H134       35.4045    1.0995   -8.2335 H         1 UNK         0.0612 
    135 H135       33.7096    0.9247   -8.4959 H         1 UNK         0.0612 
    136 H136       31.9504    1.2376   -7.1358 H         1 UNK         0.0624 
    137 H137       32.0188    2.5091   -5.9467 H         1 UNK         0.0624 
@<TRIPOS>BOND
     1    1    2 1    
     2    1   72 1    
     3    1   73 1    
     4    1   74 1    
     5    2    3 2    
     6    2    4 am   BACKBONE|DICT|INTERRES
     7    4    5 1    
     8    4   75 1    
     9    5    6 1    
    10    5   35 1    
    11    5   76 1    
    12    6    7 1    
    13    6   77 1    
    14    6   78 1    
    15    7    8 1    
    16    8    9 1    
    17    8   79 1    
    18    8   80 1    
    19    9   10 ar   
    20    9   14 ar   
    21   10   11 ar   
    22   10   81 1    
    23   11   12 ar   
    24   11   71 1    
    25   12   13 ar   
    26   12   82 1    
    27   13   14 ar   
    28   13   15 1    
    29   14   83 1    
    30   15   16 1    
    31   15   84 1    
    32   15   85 1    
    33   16   17 1    
    34   17   18 1    
    35   17   86 1    
    36   17   87 1    
    37   18   19 1    
    38   18   37 1    
    39   18   88 1    
    40   19   20 am   BACKBONE|DICT|INTERRES
    41   19   89 1    
    42   20   21 2    
    43   20   22 1    
    44   22   23 1    
    45   22   24 1    
    46   22   90 1    
    47   23   91 1    
    48   23   92 1    
    49   23   93 1    
    50   24   25 am   BACKBONE|DICT|INTERRES
    51   24   94 1    
    52   25   26 2    
    53   25   27 1    
    54   27   28 1    
    55   27   29 1    
    56   27   95 1    
    57   28   96 1    
    58   28   97 1    
    59   28   98 1    
    60   29   30 am   BACKBONE|DICT|INTERRES
    61   29   99 1    
    62   30   31 2    
    63   30   32 1    
    64   32   33 1    
    65   32   34 1    
    66   32  100 1    
    67   33  101 1    
    68   33  102 1    
    69   33  103 1    
    70   34   35 am   BACKBONE|DICT|INTERRES
    71   34  104 1    
    72   35   36 2    
    73   37   38 2    
    74   37   39 am   BACKBONE|DICT|INTERRES
    75   39   40 1    
    76   39  105 1    
    77   40   41 1    
    78   40   42 1    
    79   40  106 1    
    80   41  107 1    
    81   41  108 1    
    82   41  109 1    
    83   42   43 2    
    84   42   44 am   BACKBONE|DICT|INTERRES
    85   44   45 1    
    86   44  110 1    
    87   45   46 1    
    88   45   47 1    
    89   45  111 1    
    90   46  112 1    
    91   46  113 1    
    92   46  114 1    
    93   47   48 2    
    94   47   49 am   BACKBONE|DICT|INTERRES
    95   49   50 1    
    96   49  115 1    
    97   50   51 1    
    98   50   52 1    
    99   50  116 1    
   100   51  117 1    
   101   51  118 1    
   102   51  119 1    
   103   52   53 2    
   104   52   54 am   BACKBONE|DICT|INTERRES
   105   54   55 1    
   106   54  120 1    
   107   55   56 1    
   108   55   57 1    
   109   55  121 1    
   110   56  122 1    
   111   56  123 1    
   112   56  124 1    
   113   57   58 2    
   114   57   59 am   BACKBONE|DICT|INTERRES
   115   59   60 1    
   116   59  125 1    
   117   60   61 1    
   118   60   62 1    
   119   60  126 1    
   120   61  127 1    
   121   61  128 1    
   122   61  129 1    
   123   62   63 2    
   124   62   64 am   BACKBONE|DICT|INTERRES
   125   64   65 1    
   126   64  130 1    
   127   65   66 1    
   128   65   69 1    
   129   65  131 1    
   130   66   67 am   BACKBONE|DICT|INTERRES
   131   66   68 2    
   132   67  132 1    
   133   67  133 1    
   134   69   70 1    
   135   69  134 1    
   136   69  135 1    
   137   70   71 1    
   138   71  136 1    
   139   71  137 1    
@<TRIPOS>SUBSTRUCTURE
     1 UNK         1 GROUP             0       ****    0 ROOT    
