@<TRIPOS>MOLECULE
3R137
137   139    1
SMALL
USER_CHARGES


@<TRIPOS>ATOM
      1 CA         25.9979   -5.7190    0.5172 C.3       0 UNK        -0.2020 
      2 C          25.9250   -4.5056   -0.3962 C.2       0 UNK         0.4855 
      3 O          25.6137   -4.6470   -1.5787 O.2       0 UNK        -0.5197 
      4 N          26.1858   -3.3050    0.1444 N.am      1 UNK        -0.4892 
      5 CA         26.2208   -2.0180   -0.5758 C.3       1 UNK         0.0835 
      6 C6         27.3885   -1.9653   -1.6059 C.3       12 UNK        -0.0855 
      7 S7         28.2518   -0.3561   -1.6165 S.3       12 UNK        -0.2931 
      8 C8         29.9397   -0.8126   -1.0852 C.3       12 UNK         0.0378 
      9 C9         30.8365   -1.1578   -2.2690 C.ar      12 UNK        -0.0802 
     10 C10        31.8848   -0.3057   -2.6358 C.ar      12 UNK        -0.0944 
     11 C11        32.6910   -0.6033   -3.7395 C.ar      12 UNK        -0.0787 
     12 C12        32.4354   -1.7569   -4.4854 C.ar      12 UNK        -0.0862 
     13 C13        31.3918   -2.6131   -4.1324 C.ar      12 UNK        -0.0733 
     14 C14        30.6177   -2.3251   -3.0060 C.ar      12 UNK        -0.0832 
     15 C15        31.0871   -3.8354   -4.9845 C.3       12 UNK         0.0240 
     16 S16        30.1864   -3.3877   -6.5046 S.3       12 UNK        -0.2522 
     17 C17        28.5853   -2.8078   -5.8470 C.3       12 UNK        -0.0967 
     18 CA         27.9578   -1.5926   -6.5776 C.3       5 UNK         0.0660 
     19 N          26.6284   -1.3285   -6.0149 N.am      5 UNK        -0.4015 
     20 C          25.7373   -0.4255   -6.4438 C.2       4 UNK         0.4946 
     21 O          25.9453    0.3447   -7.3800 O.2       4 UNK        -0.5353 
     22 CA         24.4097   -0.3392   -5.6671 C.3       4 UNK         0.0277 
     23 CB         23.2345    0.1505   -6.5418 C.3       4 UNK        -0.1981 
     24 N          24.0625   -1.5730   -4.9478 N.am      4 UNK        -0.4209 
     25 C          23.6921   -2.7538   -5.4751 C.2       3 UNK         0.4942 
     26 O          23.6405   -2.9747   -6.6852 O.2       3 UNK        -0.5208 
     27 CA         23.3305   -3.8986   -4.5036 C.3       3 UNK         0.0250 
     28 CB         24.3706   -5.0277   -4.5986 C.3       3 UNK        -0.1990 
     29 N          23.2102   -3.4775   -3.1041 N.am      3 UNK        -0.4232 
     30 C          22.2338   -2.6933   -2.6180 C.2       2 UNK         0.4993 
     31 O          21.2450   -2.3594   -3.2713 O.2       2 UNK        -0.5286 
     32 CA         22.3968   -2.1463   -1.1843 C.3       2 UNK         0.0209 
     33 CB         21.4559   -2.8843   -0.2177 C.3       2 UNK        -0.1931 
     34 N          23.7658   -2.2127   -0.6594 N.am      2 UNK        -0.4546 
     35 C          24.8520   -1.6319   -1.1944 C.2       1 UNK         0.5154 
     36 O          24.7958   -0.8813   -2.1711 O.2       1 UNK        -0.5181 
     37 C          28.8585   -0.3315   -6.5932 C.2       5 UNK         0.5014 
     38 O          29.5142   -0.0612   -7.6044 O.2       5 UNK        -0.5248 
     39 N          28.8186    0.4533   -5.5044 N.am      6 UNK        -0.4434 
     40 CA         29.5047    1.7432   -5.3938 C.3       6 UNK         0.0363 
     41 CB         29.4726    2.2330   -3.9382 C.3       6 UNK        -0.1936 
     42 C          28.9140    2.8179   -6.3201 C.2       6 UNK         0.5081 
     43 O          29.6712    3.5409   -6.9656 O.2       6 UNK        -0.5248 
     44 N          27.5769    2.9003   -6.3818 N.am      7 UNK        -0.4718 
     45 CA         26.8409    3.8666   -7.2066 C.3       7 UNK         0.0273 
     46 CB         25.3637    3.8859   -6.7869 C.3       7 UNK        -0.1935 
     47 C          26.9802    3.5912   -8.7130 C.2       7 UNK         0.5018 
     48 O          27.0715    4.5357   -9.4975 O.2       7 UNK        -0.5186 
     49 N          27.0453    2.3046   -9.0802 N.am      8 UNK        -0.4240 
     50 CA         27.3690    1.8191  -10.4233 C.3       8 UNK         0.0235 
     51 CB         27.0019    0.3278  -10.5097 C.3       8 UNK        -0.2000 
     52 C          28.8456    2.0268  -10.8149 C.2       8 UNK         0.4941 
     53 O          29.1745    1.8524  -11.9889 O.2       8 UNK        -0.5273 
     54 N          29.7010    2.3755   -9.8396 N.am      9 UNK        -0.4262 
     55 CA         31.1496    2.5721   -9.9430 C.3       9 UNK         0.0264 
     56 CB         31.4817    3.7906  -10.8306 C.3       9 UNK        -0.1955 
     57 C          31.8899    1.2906  -10.3660 C.2       9 UNK         0.5031 
     58 O          32.8398    1.3567  -11.1483 O.2       9 UNK        -0.5390 
     59 N          31.4541    0.1438   -9.8255 N.am      10 UNK        -0.4204 
     60 CA         32.0415   -1.1743  -10.0849 C.3       10 UNK         0.0237 
     61 CB         30.9282   -2.2330  -10.0184 C.3       10 UNK        -0.1985 
     62 C          33.2275   -1.5043   -9.1535 C.2       10 UNK         0.4970 
     63 O          33.7222   -2.6321   -9.1863 O.2       10 UNK        -0.4914 
     64 N          33.6666   -0.5253   -8.3515 N.am      11 UNK        -0.4285 
     65 CA         34.8448   -0.5675   -7.4752 C.3       11 UNK         0.1007 
     66 C          36.1645   -0.8733   -8.2370 C.2       11 UNK         0.5703 
     67 N          37.0666   -1.6376   -7.6359 N.am      11 UNK        -0.7361 
     68 O          36.3953   -0.3873   -9.3429 O.2       11 UNK        -0.4986 
     69 C69        34.9871    0.7518   -6.6697 C.3       12 UNK        -0.0947 
     70 S70        33.5010    1.1730   -5.6971 S.3       12 UNK        -0.2240 
     71 C71        33.8405    0.3129   -4.1289 C.3       12 UNK         0.0194 
     72 H72        26.7402   -6.4235    0.1431 H         1 UNK         0.0906 
     73 H73        25.0330   -6.2246    0.5461 H         1 UNK         0.0906 
     74 H74        26.2707   -5.4478    1.5368 H         1 UNK         0.0906 
     75 H75        26.4153   -3.2512    1.1284 H         1 UNK         0.3140 
     76 H76        26.4059   -1.2686    0.1957 H         1 UNK         0.1085 
     77 H77        27.0542   -2.2053   -2.6168 H         1 UNK         0.0836 
     78 H78        28.1161   -2.7384   -1.3620 H         1 UNK         0.0836 
     79 H79        30.3586    0.0293   -0.5319 H         1 UNK         0.0731 
     80 H80        29.9096   -1.6454   -0.3812 H         1 UNK         0.0731 
     81 H81        32.0695    0.5949   -2.0663 H         1 UNK         0.1312 
     82 H82        33.0351   -1.9824   -5.3547 H         1 UNK         0.1406 
     83 H83        29.8216   -2.9984   -2.7274 H         1 UNK         0.1631 
     84 H84        30.5075   -4.5693   -4.4223 H         1 UNK         0.0717 
     85 H85        32.0204   -4.3288   -5.2600 H         1 UNK         0.0717 
     86 H86        27.9020   -3.6570   -5.9044 H         1 UNK         0.0934 
     87 H87        28.6764   -2.5840   -4.7862 H         1 UNK         0.0934 
     88 H88        27.8027   -1.8755   -7.6209 H         1 UNK         0.0739 
     89 H89        26.3513   -1.9077   -5.2376 H         1 UNK         0.3093 
     90 H90        24.5719    0.4134   -4.8940 H         1 UNK         0.0818 
     91 H91        23.4217    1.1489   -6.9347 H         1 UNK         0.0819 
     92 H92        23.0666   -0.5014   -7.3993 H         1 UNK         0.0819 
     93 H93        22.3079    0.1990   -5.9699 H         1 UNK         0.0819 
     94 H94        24.1127   -1.4963   -3.9353 H         1 UNK         0.3041 
     95 H95        22.3640   -4.2964   -4.8199 H         1 UNK         0.0784 
     96 H96        25.3668   -4.6834   -4.3179 H         1 UNK         0.0793 
     97 H97        24.1108   -5.8632   -3.9482 H         1 UNK         0.0793 
     98 H98        24.4351   -5.4179   -5.6153 H         1 UNK         0.0793 
     99 H99        23.9768   -3.7398   -2.4917 H         1 UNK         0.3024 
    100 H100       22.1077   -1.0933   -1.2136 H         1 UNK         0.1171 
    101 H101       20.4213   -2.8286   -0.5597 H         1 UNK         0.0786 
    102 H102       21.4877   -2.4468    0.7804 H         1 UNK         0.0786 
    103 H103       21.7140   -3.9406   -0.1316 H         1 UNK         0.0786 
    104 H104       23.9142   -2.8251    0.1299 H         1 UNK         0.2977 
    105 H105       28.2706    0.1591   -4.7093 H         1 UNK         0.3127 
    106 H106       30.5472    1.5924   -5.6801 H         1 UNK         0.0770 
    107 H107       29.9705    1.5316   -3.2730 H         1 UNK         0.0814 
    108 H108       29.9876    3.1893   -3.8372 H         1 UNK         0.0814 
    109 H109       28.4533    2.3699   -3.5752 H         1 UNK         0.0814 
    110 H110       27.0269    2.2387   -5.8546 H         1 UNK         0.2983 
    111 H111       27.2607    4.8570   -7.0164 H         1 UNK         0.0947 
    112 H112       24.8895    2.9189   -6.9477 H         1 UNK         0.0806 
    113 H113       24.8042    4.6230   -7.3646 H         1 UNK         0.0806 
    114 H114       25.2515    4.1465   -5.7344 H         1 UNK         0.0806 
    115 H115       26.8598    1.5927   -8.3745 H         1 UNK         0.3000 
    116 H116       26.7588    2.3697  -11.1421 H         1 UNK         0.0850 
    117 H117       27.1881   -0.0663  -11.5096 H         1 UNK         0.0810 
    118 H118       25.9469    0.1653  -10.2879 H         1 UNK         0.0810 
    119 H119       27.5861   -0.2696   -9.8082 H         1 UNK         0.0810 
    120 H120       29.3239    2.4954   -8.9073 H         1 UNK         0.3040 
    121 H121       31.4959    2.7993   -8.9336 H         1 UNK         0.0766 
    122 H122       31.2194    3.6165  -11.8745 H         1 UNK         0.0812 
    123 H123       32.5478    4.0184  -10.7978 H         1 UNK         0.0812 
    124 H124       30.9505    4.6811  -10.4944 H         1 UNK         0.0812 
    125 H125       30.6938    0.1714   -9.1474 H         1 UNK         0.3205 
    126 H126       32.4416   -1.1911  -11.1008 H         1 UNK         0.0754 
    127 H127       31.3211   -3.2404  -10.1609 H         1 UNK         0.0769 
    128 H128       30.1816   -2.0649  -10.7948 H         1 UNK         0.0769 
    129 H129       30.4141   -2.2110   -9.0598 H         1 UNK         0.0769 
    130 H130       33.1926    0.3627   -8.3927 H         1 UNK         0.2981 
    131 H131       34.6807   -1.3827   -6.7703 H         1 UNK         0.0541 
    132 H132       37.9353   -1.8320   -8.1090 H         1 UNK         0.3459 
    133 H133       36.8957   -2.0307   -6.7235 H         1 UNK         0.3459 
    134 H134       35.1798    1.5856   -7.3476 H         1 UNK         0.0612 
    135 H135       35.8486    0.7087   -6.0008 H         1 UNK         0.0612 
    136 H136       34.7513   -0.2821   -4.2039 H         1 UNK         0.0624 
    137 H137       34.0248    1.0583   -3.3539 H         1 UNK         0.0624 
@<TRIPOS>BOND
     1    1    2 1    
     2    1   72 1    
     3    1   73 1    
     4    1   74 1    
     5    2    3 2    
     6    2    4 am   BACKBONE|DICT|INTERRES
     7    4    5 1    
     8    4   75 1    
     9    5    6 1    
    10    5   35 1    
    11    5   76 1    
    12    6    7 1    
    13    6   77 1    
    14    6   78 1    
    15    7    8 1    
    16    8    9 1    
    17    8   79 1    
    18    8   80 1    
    19    9   10 ar   
    20    9   14 ar   
    21   10   11 ar   
    22   10   81 1    
    23   11   12 ar   
    24   11   71 1    
    25   12   13 ar   
    26   12   82 1    
    27   13   14 ar   
    28   13   15 1    
    29   14   83 1    
    30   15   16 1    
    31   15   84 1    
    32   15   85 1    
    33   16   17 1    
    34   17   18 1    
    35   17   86 1    
    36   17   87 1    
    37   18   19 1    
    38   18   37 1    
    39   18   88 1    
    40   19   20 am   BACKBONE|DICT|INTERRES
    41   19   89 1    
    42   20   21 2    
    43   20   22 1    
    44   22   23 1    
    45   22   24 1    
    46   22   90 1    
    47   23   91 1    
    48   23   92 1    
    49   23   93 1    
    50   24   25 am   BACKBONE|DICT|INTERRES
    51   24   94 1    
    52   25   26 2    
    53   25   27 1    
    54   27   28 1    
    55   27   29 1    
    56   27   95 1    
    57   28   96 1    
    58   28   97 1    
    59   28   98 1    
    60   29   30 am   BACKBONE|DICT|INTERRES
    61   29   99 1    
    62   30   31 2    
    63   30   32 1    
    64   32   33 1    
    65   32   34 1    
    66   32  100 1    
    67   33  101 1    
    68   33  102 1    
    69   33  103 1    
    70   34   35 am   BACKBONE|DICT|INTERRES
    71   34  104 1    
    72   35   36 2    
    73   37   38 2    
    74   37   39 am   BACKBONE|DICT|INTERRES
    75   39   40 1    
    76   39  105 1    
    77   40   41 1    
    78   40   42 1    
    79   40  106 1    
    80   41  107 1    
    81   41  108 1    
    82   41  109 1    
    83   42   43 2    
    84   42   44 am   BACKBONE|DICT|INTERRES
    85   44   45 1    
    86   44  110 1    
    87   45   46 1    
    88   45   47 1    
    89   45  111 1    
    90   46  112 1    
    91   46  113 1    
    92   46  114 1    
    93   47   48 2    
    94   47   49 am   BACKBONE|DICT|INTERRES
    95   49   50 1    
    96   49  115 1    
    97   50   51 1    
    98   50   52 1    
    99   50  116 1    
   100   51  117 1    
   101   51  118 1    
   102   51  119 1    
   103   52   53 2    
   104   52   54 am   BACKBONE|DICT|INTERRES
   105   54   55 1    
   106   54  120 1    
   107   55   56 1    
   108   55   57 1    
   109   55  121 1    
   110   56  122 1    
   111   56  123 1    
   112   56  124 1    
   113   57   58 2    
   114   57   59 am   BACKBONE|DICT|INTERRES
   115   59   60 1    
   116   59  125 1    
   117   60   61 1    
   118   60   62 1    
   119   60  126 1    
   120   61  127 1    
   121   61  128 1    
   122   61  129 1    
   123   62   63 2    
   124   62   64 am   BACKBONE|DICT|INTERRES
   125   64   65 1    
   126   64  130 1    
   127   65   66 1    
   128   65   69 1    
   129   65  131 1    
   130   66   67 am   BACKBONE|DICT|INTERRES
   131   66   68 2    
   132   67  132 1    
   133   67  133 1    
   134   69   70 1    
   135   69  134 1    
   136   69  135 1    
   137   70   71 1    
   138   71  136 1    
   139   71  137 1    
@<TRIPOS>SUBSTRUCTURE
     1 UNK         1 GROUP             0       ****    0 ROOT    
