@<TRIPOS>MOLECULE
3R137
137   139    1
SMALL
USER_CHARGES


@<TRIPOS>ATOM
      1 CA         26.9309   -6.7151   -2.2603 C.3       0 UNK        -0.2020 
      2 C          26.7223   -5.4451   -1.4489 C.2       0 UNK         0.4855 
      3 O          25.9902   -5.4616   -0.4591 O.2       0 UNK        -0.5197 
      4 N          27.3644   -4.3454   -1.8601 N.am      1 UNK        -0.4892 
      5 CA         27.2129   -3.0157   -1.2666 C.3       1 UNK         0.0835 
      6 C6         28.4001   -2.0839   -1.6227 C.3       12 UNK        -0.0855 
      7 S7         29.8917   -2.4200   -0.6221 S.3       12 UNK        -0.2931 
      8 C8         30.6890   -3.8386   -1.4486 C.3       12 UNK         0.0378 
      9 C9         31.0698   -3.5470   -2.8931 C.ar      12 UNK        -0.0802 
     10 C10        32.1865   -2.7578   -3.1842 C.ar      12 UNK        -0.0944 
     11 C11        32.5518   -2.5058   -4.5102 C.ar      12 UNK        -0.0787 
     12 C12        31.7674   -3.0278   -5.5440 C.ar      12 UNK        -0.0862 
     13 C13        30.6462   -3.8208   -5.2728 C.ar      12 UNK        -0.0733 
     14 C14        30.3256   -4.0987   -3.9398 C.ar      12 UNK        -0.0832 
     15 C15        29.8534   -4.3968   -6.4500 C.3       12 UNK         0.0240 
     16 S16        28.1536   -4.9923   -6.1060 S.3       12 UNK        -0.2522 
     17 C17        27.2766   -3.5542   -5.4001 C.3       12 UNK        -0.0967 
     18 CA         26.8396   -2.4785   -6.4280 C.3       5 UNK         0.0660 
     19 N          25.5858   -1.8196   -6.0385 N.am      5 UNK        -0.4015 
     20 C          24.9040   -0.9794   -6.8341 C.2       4 UNK         0.4946 
     21 O          25.2407   -0.6982   -7.9848 O.2       4 UNK        -0.5353 
     22 CA         23.6540   -0.3084   -6.2452 C.3       4 UNK         0.0277 
     23 CB         22.4590   -1.2747   -6.2656 C.3       4 UNK        -0.1981 
     24 N          23.8362    0.2127   -4.8895 N.am      4 UNK        -0.4209 
     25 C          24.7418    1.1185   -4.5001 C.2       3 UNK         0.4942 
     26 O          25.5950    1.5904   -5.2484 O.2       3 UNK        -0.5208 
     27 CA         24.7122    1.5746   -3.0284 C.3       3 UNK         0.0250 
     28 CB         23.6829    2.7022   -2.8204 C.3       3 UNK        -0.1990 
     29 N          24.5332    0.4868   -2.0550 N.am      3 UNK        -0.4232 
     30 C          23.4846   -0.3335   -1.8879 C.2       2 UNK         0.4993 
     31 O          22.4270   -0.2259   -2.5117 O.2       2 UNK        -0.5286 
     32 CA         23.6690   -1.4989   -0.8955 C.3       2 UNK         0.0209 
     33 CB         22.7454   -2.6918   -1.2252 C.3       2 UNK        -0.1931 
     34 N          25.0576   -1.9689   -0.7557 N.am      2 UNK        -0.4546 
     35 C          25.8680   -2.4202   -1.7269 C.2       1 UNK         0.5154 
     36 O          25.6053   -2.3750   -2.9334 O.2       1 UNK        -0.5181 
     37 C          27.9512   -1.4352   -6.6384 C.2       5 UNK         0.5014 
     38 O          28.6272   -1.4544   -7.6674 O.2       5 UNK        -0.5248 
     39 N          28.0855   -0.5211   -5.6662 N.am      6 UNK        -0.4434 
     40 CA         29.0751    0.5522   -5.6681 C.3       6 UNK         0.0363 
     41 CB         29.0378    1.3023   -4.3273 C.3       6 UNK        -0.1936 
     42 C          28.9102    1.5147   -6.8528 C.2       6 UNK         0.5081 
     43 O          29.9062    1.8591   -7.4878 O.2       6 UNK        -0.5248 
     44 N          27.6612    1.8924   -7.1535 N.am      7 UNK        -0.4718 
     45 CA         27.2904    2.7120   -8.3066 C.3       7 UNK         0.0273 
     46 CB         25.8088    3.1071   -8.2011 C.3       7 UNK        -0.1935 
     47 C          27.5744    2.0181   -9.6483 C.2       7 UNK         0.5018 
     48 O          28.1095    2.6619  -10.5511 O.2       7 UNK        -0.5186 
     49 N          27.2328    0.7247   -9.7524 N.am      8 UNK        -0.4240 
     50 CA         27.4636   -0.0951  -10.9453 C.3       8 UNK         0.0235 
     51 CB         26.7180   -1.4328  -10.8115 C.3       8 UNK        -0.2000 
     52 C          28.9549   -0.3328  -11.2327 C.2       8 UNK         0.4941 
     53 O          29.3733   -0.2210  -12.3858 O.2       8 UNK        -0.5273 
     54 N          29.7278   -0.6507  -10.1861 N.am      9 UNK        -0.4262 
     55 CA         31.1663   -0.9140  -10.2733 C.3       9 UNK         0.0264 
     56 CB         31.5904   -1.7390   -9.0500 C.3       9 UNK        -0.1955 
     57 C          32.0324    0.3536  -10.3704 C.2       9 UNK         0.5031 
     58 O          33.2014    0.2378  -10.7414 O.2       9 UNK        -0.5390 
     59 N          31.4715    1.5152   -9.9998 N.am      10 UNK        -0.4204 
     60 CA         32.1535    2.7971   -9.7766 C.3       10 UNK         0.0237 
     61 CB         32.7591    3.3578  -11.0815 C.3       10 UNK        -0.1985 
     62 C          33.1662    2.6927   -8.6178 C.2       10 UNK         0.4970 
     63 O          34.3197    3.1055   -8.7514 O.2       10 UNK        -0.4914 
     64 N          32.7010    2.1114   -7.5053 N.am      11 UNK        -0.4285 
     65 CA         33.4615    1.8832   -6.2685 C.3       11 UNK         0.1007 
     66 C          33.7741    3.1843   -5.4703 C.2       11 UNK         0.5703 
     67 N          33.0194    4.2633   -5.6481 N.am      11 UNK        -0.7361 
     68 O          34.7265    3.2242   -4.6955 O.2       11 UNK        -0.4986 
     69 C69        32.7444    0.8183   -5.3948 C.3       12 UNK        -0.0947 
     70 S70        33.8268   -0.0282   -4.1982 S.3       12 UNK        -0.2240 
     71 C71        33.8331   -1.7385   -4.8263 C.3       12 UNK         0.0194 
     72 H72        27.5590   -6.5456   -3.1348 H         1 UNK         0.0906 
     73 H73        27.4040   -7.4799   -1.6449 H         1 UNK         0.0906 
     74 H74        25.9715   -7.1006   -2.6050 H         1 UNK         0.0906 
     75 H75        27.9074   -4.3818   -2.7061 H         1 UNK         0.3140 
     76 H76        27.1815   -3.1287   -0.1802 H         1 UNK         0.1085 
     77 H77        28.6435   -2.1168   -2.6842 H         1 UNK         0.0836 
     78 H78        28.1366   -1.0435   -1.4210 H         1 UNK         0.0836 
     79 H79        31.5893   -4.1005   -0.8908 H         1 UNK         0.0731 
     80 H80        30.0392   -4.7117   -1.3830 H         1 UNK         0.0731 
     81 H81        32.7835   -2.3545   -2.3774 H         1 UNK         0.1312 
     82 H82        32.0539   -2.8470   -6.5692 H         1 UNK         0.1406 
     83 H83        29.5005   -4.7550   -3.7133 H         1 UNK         0.1631 
     84 H84        30.4206   -5.2374   -6.8513 H         1 UNK         0.0717 
     85 H85        29.8042   -3.6665   -7.2551 H         1 UNK         0.0717 
     86 H86        27.8515   -3.1216   -4.5837 H         1 UNK         0.0934 
     87 H87        26.3897   -3.9769   -4.9250 H         1 UNK         0.0934 
     88 H88        26.6552   -2.9663   -7.3877 H         1 UNK         0.0739 
     89 H89        25.2641   -1.9746   -5.0894 H         1 UNK         0.3093 
     90 H90        23.4129    0.5432   -6.8848 H         1 UNK         0.0818 
     91 H91        21.5399   -0.7740   -5.9603 H         1 UNK         0.0819 
     92 H92        22.2930   -1.6709   -7.2685 H         1 UNK         0.0819 
     93 H93        22.6137   -2.1241   -5.5988 H         1 UNK         0.0819 
     94 H94        23.1751   -0.0973   -4.1798 H         1 UNK         0.3041 
     95 H95        25.6974    1.9940   -2.8180 H         1 UNK         0.0784 
     96 H96        23.8915    3.5438   -3.4824 H         1 UNK         0.0793 
     97 H97        22.6646    2.3731   -3.0291 H         1 UNK         0.0793 
     98 H98        23.7102    3.0797   -1.7983 H         1 UNK         0.0793 
     99 H99        25.3496    0.2829   -1.4962 H         1 UNK         0.3024 
    100 H100       23.3708   -1.1083    0.0790 H         1 UNK         0.1171 
    101 H101       22.8713   -3.5018   -0.5066 H         1 UNK         0.0786 
    102 H102       22.9460   -3.0931   -2.2194 H         1 UNK         0.0786 
    103 H103       21.6951   -2.3985   -1.1976 H         1 UNK         0.0786 
    104 H104       25.3897   -2.0289    0.1978 H         1 UNK         0.2977 
    105 H105       27.4403   -0.5433   -4.8911 H         1 UNK         0.3127 
    106 H106       30.0483    0.0731   -5.7687 H         1 UNK         0.0770 
    107 H107       28.0539    1.7260   -4.1258 H         1 UNK         0.0814 
    108 H108       29.7495    2.1288   -4.3201 H         1 UNK         0.0814 
    109 H109       29.2986    0.6439   -3.4983 H         1 UNK         0.0814 
    110 H110       26.9040    1.6080   -6.5339 H         1 UNK         0.2983 
    111 H111       27.8912    3.6235   -8.2726 H         1 UNK         0.0947 
    112 H112       25.5078    3.7293   -9.0450 H         1 UNK         0.0806 
    113 H113       25.6155    3.6768   -7.2919 H         1 UNK         0.0806 
    114 H114       25.1579    2.2318   -8.1892 H         1 UNK         0.0806 
    115 H115       26.7655    0.2733   -8.9715 H         1 UNK         0.3000 
    116 H116       27.0454    0.4398  -11.8008 H         1 UNK         0.0850 
    117 H117       26.8741   -2.0585  -11.6912 H         1 UNK         0.0810 
    118 H118       25.6437   -1.2778  -10.7106 H         1 UNK         0.0810 
    119 H119       27.0555   -1.9986   -9.9422 H         1 UNK         0.0810 
    120 H120       29.2918   -0.7822   -9.2737 H         1 UNK         0.3040 
    121 H121       31.3584   -1.5097  -11.1683 H         1 UNK         0.0766 
    122 H122       32.6584   -1.9603   -9.0718 H         1 UNK         0.0812 
    123 H123       31.3831   -1.2044   -8.1220 H         1 UNK         0.0812 
    124 H124       31.0630   -2.6917   -9.0185 H         1 UNK         0.0812 
    125 H125       30.5146    1.4790   -9.6699 H         1 UNK         0.3205 
    126 H126       31.3828    3.4960   -9.4475 H         1 UNK         0.0754 
    127 H127       33.1465    4.3655  -10.9270 H         1 UNK         0.0769 
    128 H128       32.0104    3.4155  -11.8715 H         1 UNK         0.0769 
    129 H129       33.5856    2.7473  -11.4460 H         1 UNK         0.0769 
    130 H130       31.7115    1.8728   -7.4767 H         1 UNK         0.2981 
    131 H131       34.4241    1.4683   -6.5736 H         1 UNK         0.0541 
    132 H132       32.2392    4.2431   -6.2844 H         1 UNK         0.3459 
    133 H133       33.2337    5.1046   -5.1365 H         1 UNK         0.3459 
    134 H134       32.3062    0.0540   -6.0374 H         1 UNK         0.0612 
    135 H135       31.9149    1.2654   -4.8474 H         1 UNK         0.0612 
    136 H136       34.0307   -1.7245   -5.8995 H         1 UNK         0.0624 
    137 H137       34.6718   -2.2670   -4.3715 H         1 UNK         0.0624 
@<TRIPOS>BOND
     1    1    2 1    
     2    1   72 1    
     3    1   73 1    
     4    1   74 1    
     5    2    3 2    
     6    2    4 am   BACKBONE|DICT|INTERRES
     7    4    5 1    
     8    4   75 1    
     9    5    6 1    
    10    5   35 1    
    11    5   76 1    
    12    6    7 1    
    13    6   77 1    
    14    6   78 1    
    15    7    8 1    
    16    8    9 1    
    17    8   79 1    
    18    8   80 1    
    19    9   10 ar   
    20    9   14 ar   
    21   10   11 ar   
    22   10   81 1    
    23   11   12 ar   
    24   11   71 1    
    25   12   13 ar   
    26   12   82 1    
    27   13   14 ar   
    28   13   15 1    
    29   14   83 1    
    30   15   16 1    
    31   15   84 1    
    32   15   85 1    
    33   16   17 1    
    34   17   18 1    
    35   17   86 1    
    36   17   87 1    
    37   18   19 1    
    38   18   37 1    
    39   18   88 1    
    40   19   20 am   BACKBONE|DICT|INTERRES
    41   19   89 1    
    42   20   21 2    
    43   20   22 1    
    44   22   23 1    
    45   22   24 1    
    46   22   90 1    
    47   23   91 1    
    48   23   92 1    
    49   23   93 1    
    50   24   25 am   BACKBONE|DICT|INTERRES
    51   24   94 1    
    52   25   26 2    
    53   25   27 1    
    54   27   28 1    
    55   27   29 1    
    56   27   95 1    
    57   28   96 1    
    58   28   97 1    
    59   28   98 1    
    60   29   30 am   BACKBONE|DICT|INTERRES
    61   29   99 1    
    62   30   31 2    
    63   30   32 1    
    64   32   33 1    
    65   32   34 1    
    66   32  100 1    
    67   33  101 1    
    68   33  102 1    
    69   33  103 1    
    70   34   35 am   BACKBONE|DICT|INTERRES
    71   34  104 1    
    72   35   36 2    
    73   37   38 2    
    74   37   39 am   BACKBONE|DICT|INTERRES
    75   39   40 1    
    76   39  105 1    
    77   40   41 1    
    78   40   42 1    
    79   40  106 1    
    80   41  107 1    
    81   41  108 1    
    82   41  109 1    
    83   42   43 2    
    84   42   44 am   BACKBONE|DICT|INTERRES
    85   44   45 1    
    86   44  110 1    
    87   45   46 1    
    88   45   47 1    
    89   45  111 1    
    90   46  112 1    
    91   46  113 1    
    92   46  114 1    
    93   47   48 2    
    94   47   49 am   BACKBONE|DICT|INTERRES
    95   49   50 1    
    96   49  115 1    
    97   50   51 1    
    98   50   52 1    
    99   50  116 1    
   100   51  117 1    
   101   51  118 1    
   102   51  119 1    
   103   52   53 2    
   104   52   54 am   BACKBONE|DICT|INTERRES
   105   54   55 1    
   106   54  120 1    
   107   55   56 1    
   108   55   57 1    
   109   55  121 1    
   110   56  122 1    
   111   56  123 1    
   112   56  124 1    
   113   57   58 2    
   114   57   59 am   BACKBONE|DICT|INTERRES
   115   59   60 1    
   116   59  125 1    
   117   60   61 1    
   118   60   62 1    
   119   60  126 1    
   120   61  127 1    
   121   61  128 1    
   122   61  129 1    
   123   62   63 2    
   124   62   64 am   BACKBONE|DICT|INTERRES
   125   64   65 1    
   126   64  130 1    
   127   65   66 1    
   128   65   69 1    
   129   65  131 1    
   130   66   67 am   BACKBONE|DICT|INTERRES
   131   66   68 2    
   132   67  132 1    
   133   67  133 1    
   134   69   70 1    
   135   69  134 1    
   136   69  135 1    
   137   70   71 1    
   138   71  136 1    
   139   71  137 1    
@<TRIPOS>SUBSTRUCTURE
     1 UNK         1 GROUP             0       ****    0 ROOT    
