@<TRIPOS>MOLECULE
3R137
137   139    1
SMALL
USER_CHARGES


@<TRIPOS>ATOM
      1 CA         27.5135   -2.3079    2.1612 C.3       0 UNK        -0.2020 
      2 C          28.3651   -3.2396    1.3024 C.2       0 UNK         0.4855 
      3 O          28.5450   -4.3981    1.6714 O.2       0 UNK        -0.5197 
      4 N          28.9214   -2.7988    0.1642 N.am      1 UNK        -0.4892 
      5 CA         28.7852   -1.4728   -0.4565 C.3       1 UNK         0.0835 
      6 C6         29.7552   -1.2807   -1.6509 C.3       12 UNK        -0.0855 
      7 S7         31.5165   -1.5100   -1.2163 S.3       12 UNK        -0.2931 
      8 C8         31.8266   -3.2889   -1.5029 C.3       12 UNK         0.0378 
      9 C9         31.5747   -3.7227   -2.9411 C.ar      12 UNK        -0.0802 
     10 C10        32.5776   -3.5859   -3.9049 C.ar      12 UNK        -0.0944 
     11 C11        32.3561   -3.9973   -5.2222 C.ar      12 UNK        -0.0787 
     12 C12        31.1219   -4.5541   -5.5718 C.ar      12 UNK        -0.0862 
     13 C13        30.1031   -4.6812   -4.6215 C.ar      12 UNK        -0.0733 
     14 C14        30.3460   -4.2840   -3.3040 C.ar      12 UNK        -0.0832 
     15 C15        28.7342   -5.2371   -5.0051 C.3       12 UNK         0.0240 
     16 S16        27.9831   -4.4074   -6.4484 S.3       12 UNK        -0.2522 
     17 C17        28.2286   -2.6439   -6.0567 C.3       12 UNK        -0.0967 
     18 CA         27.4614   -1.7320   -7.0412 C.3       5 UNK         0.0660 
     19 N          26.0094   -1.7975   -6.8570 N.am      5 UNK        -0.4015 
     20 C          25.1102   -1.2825   -7.7071 C.2       4 UNK         0.4946 
     21 O          25.4034   -0.7134   -8.7578 O.2       4 UNK        -0.5353 
     22 CA         23.6344   -1.3722   -7.2878 C.3       4 UNK         0.0277 
     23 CB         23.0967   -2.8009   -7.4697 C.3       4 UNK        -0.1981 
     24 N          23.4199   -0.9300   -5.9083 N.am      4 UNK        -0.4209 
     25 C          23.6486    0.3166   -5.4697 C.2       3 UNK         0.4942 
     26 O          24.0145    1.2423   -6.1921 O.2       3 UNK        -0.5208 
     27 CA         23.4776    0.5683   -3.9628 C.3       3 UNK         0.0250 
     28 CB         22.0201    0.9371   -3.6429 C.3       3 UNK        -0.1990 
     29 N          23.9007   -0.5469   -3.1084 N.am      3 UNK        -0.4232 
     30 C          25.1208   -1.1026   -3.0998 C.2       2 UNK         0.4993 
     31 O          26.0219   -0.8142   -3.8921 O.2       2 UNK        -0.5286 
     32 CA         25.3520   -2.2088   -2.0575 C.3       2 UNK         0.0209 
     33 CB         25.0466   -3.5831   -2.6767 C.3       2 UNK        -0.1931 
     34 N          26.7201   -2.2226   -1.5344 N.am      2 UNK        -0.4546 
     35 C          27.3370   -1.2059   -0.9124 C.2       1 UNK         0.5154 
     36 O          26.8063   -0.1253   -0.6535 O.2       1 UNK        -0.5181 
     37 C          27.9745   -0.2856   -6.9533 C.2       5 UNK         0.5014 
     38 O          28.7861    0.1135   -7.7907 O.2       5 UNK        -0.5248 
     39 N          27.4762    0.4800   -5.9718 N.am      6 UNK        -0.4434 
     40 CA         27.7955    1.8962   -5.7782 C.3       6 UNK         0.0363 
     41 CB         27.1170    2.4099   -4.4997 C.3       6 UNK        -0.1936 
     42 C          27.4204    2.7748   -6.9862 C.2       6 UNK         0.5081 
     43 O          28.1725    3.6895   -7.3201 O.2       6 UNK        -0.5248 
     44 N          26.2839    2.4733   -7.6273 N.am      7 UNK        -0.4718 
     45 CA         25.8281    3.1366   -8.8467 C.3       7 UNK         0.0273 
     46 CB         24.3157    2.9174   -9.0181 C.3       7 UNK        -0.1935 
     47 C          26.5905    2.6676  -10.0964 C.2       7 UNK         0.5018 
     48 O          27.0590    3.5103  -10.8630 O.2       7 UNK        -0.5186 
     49 N          26.6624    1.3451  -10.3082 N.am      8 UNK        -0.4240 
     50 CA         27.1657    0.7505  -11.5490 C.3       8 UNK         0.0235 
     51 CB         26.6294   -0.6832  -11.6939 C.3       8 UNK        -0.2000 
     52 C          28.6955    0.7572  -11.6728 C.2       8 UNK         0.4941 
     53 O          29.2018    1.0500  -12.7573 O.2       8 UNK        -0.5273 
     54 N          29.3977    0.3963  -10.5916 N.am      9 UNK        -0.4262 
     55 CA         30.8478    0.1826  -10.5873 C.3       9 UNK         0.0264 
     56 CB         31.1386   -1.2446  -10.0959 C.3       9 UNK        -0.1955 
     57 C          31.5911    1.2093   -9.7230 C.2       9 UNK         0.5031 
     58 O          32.7151    1.5738  -10.0693 O.2       9 UNK        -0.5390 
     59 N          30.9681    1.6406   -8.6161 N.am      10 UNK        -0.4204 
     60 CA         31.4763    2.5866   -7.6118 C.3       10 UNK         0.0237 
     61 CB         31.7533    3.9727   -8.2325 C.3       10 UNK        -0.1985 
     62 C          32.6637    2.0594   -6.7792 C.2       10 UNK         0.4970 
     63 O          33.3035    2.8461   -6.0795 O.2       10 UNK        -0.4914 
     64 N          32.9238    0.7471   -6.8372 N.am      11 UNK        -0.4285 
     65 CA         33.9521    0.0510   -6.0496 C.3       11 UNK         0.1007 
     66 C          33.5621   -0.2304   -4.5710 C.2       11 UNK         0.5703 
     67 N          32.3112   -0.0480   -4.1658 N.am      11 UNK        -0.7361 
     68 O          34.4193   -0.6054   -3.7748 O.2       11 UNK        -0.4986 
     69 C69        34.4703   -1.2194   -6.7765 C.3       12 UNK        -0.0947 
     70 S70        33.1610   -2.3784   -7.3124 S.3       12 UNK        -0.2240 
     71 C71        33.4442   -3.8468   -6.2730 C.3       12 UNK         0.0194 
     72 H72        27.4359   -2.6968    3.1763 H         1 UNK         0.0906 
     73 H73        27.9426   -1.3094    2.2300 H         1 UNK         0.0906 
     74 H74        26.5044   -2.2310    1.7575 H         1 UNK         0.0906 
     75 H75        29.5148   -3.4393   -0.3385 H         1 UNK         0.3140 
     76 H76        29.0391   -0.7213    0.2936 H         1 UNK         0.1085 
     77 H77        29.4881   -1.9210   -2.4903 H         1 UNK         0.0836 
     78 H78        29.6596   -0.2626   -2.0345 H         1 UNK         0.0836 
     79 H79        32.8658   -3.4975   -1.2438 H         1 UNK         0.0731 
     80 H80        31.2319   -3.8885   -0.8143 H         1 UNK         0.0731 
     81 H81        33.5301   -3.1550   -3.6284 H         1 UNK         0.1312 
     82 H82        30.9444   -4.8644   -6.5926 H         1 UNK         0.1406 
     83 H83        29.5700   -4.4000   -2.5609 H         1 UNK         0.1631 
     84 H84        28.8323   -6.3013   -5.2224 H         1 UNK         0.0717 
     85 H85        28.0378   -5.1573   -4.1689 H         1 UNK         0.0717 
     86 H86        27.9300   -2.4518   -5.0241 H         1 UNK         0.0934 
     87 H87        29.3006   -2.4410   -6.1093 H         1 UNK         0.0934 
     88 H88        27.6763   -2.0733   -8.0567 H         1 UNK         0.0739 
     89 H89        25.6870   -2.1987   -5.9893 H         1 UNK         0.3093 
     90 H90        23.0656   -0.7082   -7.9425 H         1 UNK         0.0818 
     91 H91        22.0275   -2.8509   -7.2632 H         1 UNK         0.0819 
     92 H92        23.2422   -3.1429   -8.4955 H         1 UNK         0.0819 
     93 H93        23.5989   -3.5140   -6.8147 H         1 UNK         0.0819 
     94 H94        23.1124   -1.6234   -5.2424 H         1 UNK         0.3041 
     95 H95        24.1039    1.4233   -3.7037 H         1 UNK         0.0784 
     96 H96        21.6881    1.7789   -4.2526 H         1 UNK         0.0793 
     97 H97        21.3397    0.1067   -3.8363 H         1 UNK         0.0793 
     98 H98        21.9040    1.2316   -2.5997 H         1 UNK         0.0793 
     99 H99        23.2204   -0.8693   -2.4349 H         1 UNK         0.3024 
    100 H100       24.6810   -2.0404   -1.2123 H         1 UNK         0.1171 
    101 H101       25.1548   -4.3826   -1.9434 H         1 UNK         0.0786 
    102 H102       24.0227   -3.6283   -3.0505 H         1 UNK         0.0786 
    103 H103       25.7095   -3.8044   -3.5147 H         1 UNK         0.0786 
    104 H104       27.2419   -3.0741   -1.6737 H         1 UNK         0.2977 
    105 H105       26.8445    0.0546   -5.2939 H         1 UNK         0.3127 
    106 H106       28.8745    1.9651   -5.6346 H         1 UNK         0.0770 
    107 H107       26.0318    2.4075   -4.5950 H         1 UNK         0.0814 
    108 H108       27.4215    3.4347   -4.2836 H         1 UNK         0.0814 
    109 H109       27.3804    1.8015   -3.6340 H         1 UNK         0.0814 
    110 H110       25.6800    1.7522   -7.2444 H         1 UNK         0.2983 
    111 H111       25.9988    4.2104   -8.7392 H         1 UNK         0.0947 
    112 H112       23.9495    3.4006   -9.9248 H         1 UNK         0.0806 
    113 H113       23.7594    3.3365   -8.1794 H         1 UNK         0.0806 
    114 H114       24.0642    1.8580   -9.0855 H         1 UNK         0.0806 
    115 H115       26.2377    0.7071   -9.6370 H         1 UNK         0.3000 
    116 H116       26.7693    1.3329  -12.3841 H         1 UNK         0.0850 
    117 H117       26.9483   -1.1266  -12.6382 H         1 UNK         0.0810 
    118 H118       25.5395   -0.7025  -11.6782 H         1 UNK         0.0810 
    119 H119       26.9861   -1.3315  -10.8925 H         1 UNK         0.0810 
    120 H120       28.9081    0.2144   -9.7201 H         1 UNK         0.3040 
    121 H121       31.2503    0.2692  -11.5988 H         1 UNK         0.0766 
    122 H122       30.6792   -1.9875  -10.7479 H         1 UNK         0.0812 
    123 H123       30.7642   -1.4123   -9.0853 H         1 UNK         0.0812 
    124 H124       32.2113   -1.4428  -10.0877 H         1 UNK         0.0812 
    125 H125       30.0731    1.2099   -8.3849 H         1 UNK         0.3205 
    126 H126       30.6655    2.7174   -6.8972 H         1 UNK         0.0754 
    127 H127       31.9663    4.7125   -7.4599 H         1 UNK         0.0769 
    128 H128       30.8891    4.3329   -8.7911 H         1 UNK         0.0769 
    129 H129       32.6089    3.9548   -8.9078 H         1 UNK         0.0769 
    130 H130       32.3544    0.1597   -7.4272 H         1 UNK         0.2981 
    131 H131       34.8076    0.7259   -5.9823 H         1 UNK         0.0541 
    132 H132       31.6006    0.2521   -4.8104 H         1 UNK         0.3459 
    133 H133       32.0776   -0.2654   -3.2082 H         1 UNK         0.3459 
    134 H134       35.2162   -1.7365   -6.1712 H         1 UNK         0.0612 
    135 H135       35.0026   -0.9126   -7.6780 H         1 UNK         0.0612 
    136 H136       34.4290   -3.8127   -5.8060 H         1 UNK         0.0624 
    137 H137       33.4490   -4.7284   -6.9155 H         1 UNK         0.0624 
@<TRIPOS>BOND
     1    1    2 1    
     2    1   72 1    
     3    1   73 1    
     4    1   74 1    
     5    2    3 2    
     6    2    4 am   BACKBONE|DICT|INTERRES
     7    4    5 1    
     8    4   75 1    
     9    5    6 1    
    10    5   35 1    
    11    5   76 1    
    12    6    7 1    
    13    6   77 1    
    14    6   78 1    
    15    7    8 1    
    16    8    9 1    
    17    8   79 1    
    18    8   80 1    
    19    9   10 ar   
    20    9   14 ar   
    21   10   11 ar   
    22   10   81 1    
    23   11   12 ar   
    24   11   71 1    
    25   12   13 ar   
    26   12   82 1    
    27   13   14 ar   
    28   13   15 1    
    29   14   83 1    
    30   15   16 1    
    31   15   84 1    
    32   15   85 1    
    33   16   17 1    
    34   17   18 1    
    35   17   86 1    
    36   17   87 1    
    37   18   19 1    
    38   18   37 1    
    39   18   88 1    
    40   19   20 am   BACKBONE|DICT|INTERRES
    41   19   89 1    
    42   20   21 2    
    43   20   22 1    
    44   22   23 1    
    45   22   24 1    
    46   22   90 1    
    47   23   91 1    
    48   23   92 1    
    49   23   93 1    
    50   24   25 am   BACKBONE|DICT|INTERRES
    51   24   94 1    
    52   25   26 2    
    53   25   27 1    
    54   27   28 1    
    55   27   29 1    
    56   27   95 1    
    57   28   96 1    
    58   28   97 1    
    59   28   98 1    
    60   29   30 am   BACKBONE|DICT|INTERRES
    61   29   99 1    
    62   30   31 2    
    63   30   32 1    
    64   32   33 1    
    65   32   34 1    
    66   32  100 1    
    67   33  101 1    
    68   33  102 1    
    69   33  103 1    
    70   34   35 am   BACKBONE|DICT|INTERRES
    71   34  104 1    
    72   35   36 2    
    73   37   38 2    
    74   37   39 am   BACKBONE|DICT|INTERRES
    75   39   40 1    
    76   39  105 1    
    77   40   41 1    
    78   40   42 1    
    79   40  106 1    
    80   41  107 1    
    81   41  108 1    
    82   41  109 1    
    83   42   43 2    
    84   42   44 am   BACKBONE|DICT|INTERRES
    85   44   45 1    
    86   44  110 1    
    87   45   46 1    
    88   45   47 1    
    89   45  111 1    
    90   46  112 1    
    91   46  113 1    
    92   46  114 1    
    93   47   48 2    
    94   47   49 am   BACKBONE|DICT|INTERRES
    95   49   50 1    
    96   49  115 1    
    97   50   51 1    
    98   50   52 1    
    99   50  116 1    
   100   51  117 1    
   101   51  118 1    
   102   51  119 1    
   103   52   53 2    
   104   52   54 am   BACKBONE|DICT|INTERRES
   105   54   55 1    
   106   54  120 1    
   107   55   56 1    
   108   55   57 1    
   109   55  121 1    
   110   56  122 1    
   111   56  123 1    
   112   56  124 1    
   113   57   58 2    
   114   57   59 am   BACKBONE|DICT|INTERRES
   115   59   60 1    
   116   59  125 1    
   117   60   61 1    
   118   60   62 1    
   119   60  126 1    
   120   61  127 1    
   121   61  128 1    
   122   61  129 1    
   123   62   63 2    
   124   62   64 am   BACKBONE|DICT|INTERRES
   125   64   65 1    
   126   64  130 1    
   127   65   66 1    
   128   65   69 1    
   129   65  131 1    
   130   66   67 am   BACKBONE|DICT|INTERRES
   131   66   68 2    
   132   67  132 1    
   133   67  133 1    
   134   69   70 1    
   135   69  134 1    
   136   69  135 1    
   137   70   71 1    
   138   71  136 1    
   139   71  137 1    
@<TRIPOS>SUBSTRUCTURE
     1 UNK         1 GROUP             0       ****    0 ROOT    
