@<TRIPOS>MOLECULE
3R137
137   139    1
SMALL
USER_CHARGES


@<TRIPOS>ATOM
      1 CA         30.1054   -4.0827   -1.5823 C.3       0 UNK        -0.2020 
      2 C          29.4466   -2.8138   -1.0659 C.2       0 UNK         0.4855 
      3 O          29.1844   -2.7041    0.1318 O.2       0 UNK        -0.5197 
      4 N          29.1628   -1.8593   -1.9619 N.am      1 UNK        -0.4892 
      5 CA         28.5074   -0.5807   -1.6457 C.3       1 UNK         0.0835 
      6 C6         28.7203    0.4649   -2.7710 C.3       12 UNK        -0.0855 
      7 S7         30.4597    1.0106   -2.8672 S.3       12 UNK        -0.2931 
      8 C8         30.9143    0.6092   -4.5844 C.3       12 UNK         0.0378 
      9 C9         31.0096   -0.8907   -4.8225 C.ar      12 UNK        -0.0802 
     10 C10        31.9766   -1.6527   -4.1589 C.ar      12 UNK        -0.0944 
     11 C11        32.0777   -3.0281   -4.3895 C.ar      12 UNK        -0.0787 
     12 C12        31.1992   -3.6409   -5.2869 C.ar      12 UNK        -0.0862 
     13 C13        30.2344   -2.8883   -5.9613 C.ar      12 UNK        -0.0733 
     14 C14        30.1478   -1.5125   -5.7293 C.ar      12 UNK        -0.0832 
     15 C15        29.3085   -3.5626   -6.9614 C.3       12 UNK         0.0240 
     16 S16        27.9636   -4.4819   -6.1470 S.3       12 UNK        -0.2522 
     17 C17        26.9506   -3.1456   -5.4330 C.3       12 UNK        -0.0967 
     18 CA         26.0315   -2.4627   -6.4880 C.3       5 UNK         0.0660 
     19 N          24.6203   -2.5210   -6.0995 N.am      5 UNK        -0.4015 
     20 C          23.5841   -2.6075   -6.9436 C.2       4 UNK         0.4946 
     21 O          23.7023   -2.6589   -8.1684 O.2       4 UNK        -0.5353 
     22 CA         22.1731   -2.6651   -6.3260 C.3       4 UNK         0.0277 
     23 CB         21.6912   -4.1225   -6.2355 C.3       4 UNK        -0.1981 
     24 N          22.0931   -2.0510   -4.9970 N.am      4 UNK        -0.4209 
     25 C          22.0541   -0.7293   -4.7776 C.2       3 UNK         0.4942 
     26 O          22.0190    0.1126   -5.6751 O.2       3 UNK        -0.5208 
     27 CA         22.0949   -0.2621   -3.3087 C.3       3 UNK         0.0250 
     28 CB         20.6705   -0.1638   -2.7388 C.3       3 UNK        -0.1990 
     29 N          22.9269   -1.0761   -2.4074 N.am      3 UNK        -0.4232 
     30 C          24.2170   -1.3752   -2.6113 C.2       2 UNK         0.4993 
     31 O          24.8162   -1.1171   -3.6556 O.2       2 UNK        -0.5286 
     32 CA         24.9603   -2.1286   -1.4981 C.3       2 UNK         0.0209 
     33 CB         24.6964   -3.6394   -1.6042 C.3       2 UNK        -0.1931 
     34 N          26.4041   -1.8903   -1.5939 N.am      2 UNK        -0.4546 
     35 C          27.0038   -0.7241   -1.3112 C.2       1 UNK         0.5154 
     36 O          26.4109    0.2313   -0.8062 O.2       1 UNK        -0.5181 
     37 C          26.4682   -1.0081   -6.7428 C.2       5 UNK         0.5014 
     38 O          27.2559   -0.7673   -7.6556 O.2       5 UNK        -0.5248 
     39 N          25.9446   -0.0669   -5.9432 N.am      6 UNK        -0.4434 
     40 CA         26.2586    1.3680   -5.9076 C.3       6 UNK         0.0363 
     41 CB         25.4714    2.0068   -4.7503 C.3       6 UNK        -0.1936 
     42 C          26.0443    2.1563   -7.2172 C.2       6 UNK         0.5081 
     43 O          26.3972    3.3352   -7.2694 O.2       6 UNK        -0.5248 
     44 N          25.5023    1.5102   -8.2583 N.am      7 UNK        -0.4718 
     45 CA         25.5473    1.9834   -9.6432 C.3       7 UNK         0.0273 
     46 CB         24.6509    1.0874  -10.5126 C.3       7 UNK        -0.1935 
     47 C          26.9846    2.0240  -10.2036 C.2       7 UNK         0.5018 
     48 O          27.2739    2.8735  -11.0475 O.2       7 UNK        -0.5186 
     49 N          27.8607    1.1330   -9.7141 N.am      8 UNK        -0.4240 
     50 CA         29.3034    1.1821   -9.9377 C.3       8 UNK         0.0235 
     51 CB         29.8948   -0.2292   -9.7853 C.3       8 UNK        -0.2000 
     52 C          29.9338    2.1444   -8.9207 C.2       8 UNK         0.4941 
     53 O          29.6185    2.0662   -7.7316 O.2       8 UNK        -0.5273 
     54 N          30.8229    3.0231   -9.4000 N.am      9 UNK        -0.4262 
     55 CA         31.4815    4.0571   -8.5936 C.3       9 UNK         0.0264 
     56 CB         32.0810    5.1164   -9.5340 C.3       9 UNK        -0.1955 
     57 C          32.5611    3.5226   -7.6334 C.2       9 UNK         0.5031 
     58 O          32.9283    4.2311   -6.6945 O.2       9 UNK        -0.5390 
     59 N          33.0631    2.3094   -7.8846 N.am      10 UNK        -0.4204 
     60 CA         34.0964    1.6327   -7.1091 C.3       10 UNK         0.0237 
     61 CB         35.4873    2.1435   -7.5339 C.3       10 UNK        -0.1985 
     62 C          33.9673    0.1218   -7.3311 C.2       10 UNK         0.4970 
     63 O          33.2732   -0.3036   -8.2585 O.2       10 UNK        -0.4914 
     64 N          34.6587   -0.6515   -6.4865 N.am      11 UNK        -0.4285 
     65 CA         34.7155   -2.1206   -6.5469 C.3       11 UNK         0.1007 
     66 C          35.5030   -2.6964   -7.7631 C.2       11 UNK         0.5703 
     67 N          36.3303   -1.9138   -8.4471 N.am      11 UNK        -0.7361 
     68 O          35.3534   -3.8678   -8.1012 O.2       11 UNK        -0.4986 
     69 C69        35.2228   -2.7006   -5.1962 C.3       12 UNK        -0.0947 
     70 S70        34.4954   -4.3250   -4.7987 S.3       12 UNK        -0.2240 
     71 C71        33.1387   -3.8555   -3.6785 C.3       12 UNK         0.0194 
     72 H72        29.6427   -4.9593   -1.1295 H         1 UNK         0.0906 
     73 H73        30.0090   -4.1769   -2.6634 H         1 UNK         0.0906 
     74 H74        31.1641   -4.0855   -1.3258 H         1 UNK         0.0906 
     75 H75        29.4574   -1.9746   -2.9221 H         1 UNK         0.3140 
     76 H76        28.9700   -0.1898   -0.7363 H         1 UNK         0.1085 
     77 H77        28.3868    0.0716   -3.7330 H         1 UNK         0.0836 
     78 H78        28.1221    1.3605   -2.5906 H         1 UNK         0.0836 
     79 H79        31.8800    1.0637   -4.8073 H         1 UNK         0.0731 
     80 H80        30.1965    1.0731   -5.2629 H         1 UNK         0.0731 
     81 H81        32.6521   -1.1702   -3.4657 H         1 UNK         0.1312 
     82 H82        31.2754   -4.7041   -5.4703 H         1 UNK         0.1406 
     83 H83        29.4171   -0.9205   -6.2625 H         1 UNK         0.1631 
     84 H84        29.8866   -4.2598   -7.5697 H         1 UNK         0.0717 
     85 H85        28.8905   -2.8367   -7.6589 H         1 UNK         0.0717 
     86 H86        26.3532   -3.6065   -4.6452 H         1 UNK         0.0934 
     87 H87        27.5955   -2.4413   -4.9043 H         1 UNK         0.0934 
     88 H88        26.1343   -2.9855   -7.4417 H         1 UNK         0.0739 
     89 H89        24.4318   -2.3745   -5.1146 H         1 UNK         0.3093 
     90 H90        21.5005   -2.1272   -6.9981 H         1 UNK         0.0818 
     91 H91        21.7102   -4.6009   -7.2158 H         1 UNK         0.0819 
     92 H92        22.3196   -4.7171   -5.5712 H         1 UNK         0.0819 
     93 H93        20.6657   -4.1797   -5.8699 H         1 UNK         0.0819 
     94 H94        22.1026   -2.6709   -4.1999 H         1 UNK         0.3041 
     95 H95        22.5261    0.7413   -3.3111 H         1 UNK         0.0784 
     96 H96        20.0357    0.4532   -3.3766 H         1 UNK         0.0793 
     97 H97        20.1983   -1.1439   -2.6595 H         1 UNK         0.0793 
     98 H98        20.6687    0.2919   -1.7484 H         1 UNK         0.0793 
     99 H99        22.4995   -1.3513   -1.5343 H         1 UNK         0.3024 
    100 H100       24.6087   -1.7652   -0.5298 H         1 UNK         0.1171 
    101 H101       23.6338   -3.8618   -1.4981 H         1 UNK         0.0786 
    102 H102       25.0192   -4.0428   -2.5647 H         1 UNK         0.0786 
    103 H103       25.2182   -4.1877   -0.8195 H         1 UNK         0.0786 
    104 H104       26.9637   -2.6176   -2.0120 H         1 UNK         0.2977 
    105 H105       25.3556   -0.3938   -5.1778 H         1 UNK         0.3127 
    106 H106       27.3233    1.4507   -5.6799 H         1 UNK         0.0770 
    107 H107       24.3952    1.9187   -4.9043 H         1 UNK         0.0814 
    108 H108       25.7030    3.0682   -4.6518 H         1 UNK         0.0814 
    109 H109       25.7129    1.5367   -3.7966 H         1 UNK         0.0814 
    110 H110       25.2414    0.5448   -8.1185 H         1 UNK         0.2983 
    111 H111       25.1521    3.0013   -9.6694 H         1 UNK         0.0947 
    112 H112       24.9904    0.0506  -10.5085 H         1 UNK         0.0806 
    113 H113       24.6496    1.4267  -11.5494 H         1 UNK         0.0806 
    114 H114       23.6175    1.1038  -10.1658 H         1 UNK         0.0806 
    115 H115       27.5534    0.4982   -8.9792 H         1 UNK         0.3000 
    116 H116       29.5009    1.5335  -10.9529 H         1 UNK         0.0850 
    117 H117       30.9648   -0.2298   -9.9967 H         1 UNK         0.0810 
    118 H118       29.4260   -0.9334  -10.4726 H         1 UNK         0.0810 
    119 H119       29.7659   -0.6143   -8.7731 H         1 UNK         0.0810 
    120 H120       31.0327    3.0188  -10.3884 H         1 UNK         0.3040 
    121 H121       30.7190    4.5419   -7.9796 H         1 UNK         0.0766 
    122 H122       31.3145    5.5698  -10.1629 H         1 UNK         0.0812 
    123 H123       32.8456    4.6920  -10.1860 H         1 UNK         0.0812 
    124 H124       32.5487    5.9225   -8.9667 H         1 UNK         0.0812 
    125 H125       32.6704    1.7497   -8.6314 H         1 UNK         0.3205 
    126 H126       33.9383    1.8354   -6.0477 H         1 UNK         0.0754 
    127 H127       36.2807    1.6637   -6.9598 H         1 UNK         0.0769 
    128 H128       35.5824    3.2174   -7.3716 H         1 UNK         0.0769 
    129 H129       35.6814    1.9486   -8.5895 H         1 UNK         0.0769 
    130 H130       35.2196   -0.2165   -5.7694 H         1 UNK         0.2981 
    131 H131       33.6833   -2.4473   -6.6875 H         1 UNK         0.0541 
    132 H132       36.8291   -2.2948   -9.2356 H         1 UNK         0.3459 
    133 H133       36.4608   -0.9509   -8.1844 H         1 UNK         0.3459 
    134 H134       36.3107   -2.7899   -5.1889 H         1 UNK         0.0612 
    135 H135       34.9857   -2.0248   -4.3732 H         1 UNK         0.0612 
    136 H136       33.5441   -3.3175   -2.8202 H         1 UNK         0.0624 
    137 H137       32.6834   -4.7645   -3.2835 H         1 UNK         0.0624 
@<TRIPOS>BOND
     1    1    2 1    
     2    1   72 1    
     3    1   73 1    
     4    1   74 1    
     5    2    3 2    
     6    2    4 am   BACKBONE|DICT|INTERRES
     7    4    5 1    
     8    4   75 1    
     9    5    6 1    
    10    5   35 1    
    11    5   76 1    
    12    6    7 1    
    13    6   77 1    
    14    6   78 1    
    15    7    8 1    
    16    8    9 1    
    17    8   79 1    
    18    8   80 1    
    19    9   10 ar   
    20    9   14 ar   
    21   10   11 ar   
    22   10   81 1    
    23   11   12 ar   
    24   11   71 1    
    25   12   13 ar   
    26   12   82 1    
    27   13   14 ar   
    28   13   15 1    
    29   14   83 1    
    30   15   16 1    
    31   15   84 1    
    32   15   85 1    
    33   16   17 1    
    34   17   18 1    
    35   17   86 1    
    36   17   87 1    
    37   18   19 1    
    38   18   37 1    
    39   18   88 1    
    40   19   20 am   BACKBONE|DICT|INTERRES
    41   19   89 1    
    42   20   21 2    
    43   20   22 1    
    44   22   23 1    
    45   22   24 1    
    46   22   90 1    
    47   23   91 1    
    48   23   92 1    
    49   23   93 1    
    50   24   25 am   BACKBONE|DICT|INTERRES
    51   24   94 1    
    52   25   26 2    
    53   25   27 1    
    54   27   28 1    
    55   27   29 1    
    56   27   95 1    
    57   28   96 1    
    58   28   97 1    
    59   28   98 1    
    60   29   30 am   BACKBONE|DICT|INTERRES
    61   29   99 1    
    62   30   31 2    
    63   30   32 1    
    64   32   33 1    
    65   32   34 1    
    66   32  100 1    
    67   33  101 1    
    68   33  102 1    
    69   33  103 1    
    70   34   35 am   BACKBONE|DICT|INTERRES
    71   34  104 1    
    72   35   36 2    
    73   37   38 2    
    74   37   39 am   BACKBONE|DICT|INTERRES
    75   39   40 1    
    76   39  105 1    
    77   40   41 1    
    78   40   42 1    
    79   40  106 1    
    80   41  107 1    
    81   41  108 1    
    82   41  109 1    
    83   42   43 2    
    84   42   44 am   BACKBONE|DICT|INTERRES
    85   44   45 1    
    86   44  110 1    
    87   45   46 1    
    88   45   47 1    
    89   45  111 1    
    90   46  112 1    
    91   46  113 1    
    92   46  114 1    
    93   47   48 2    
    94   47   49 am   BACKBONE|DICT|INTERRES
    95   49   50 1    
    96   49  115 1    
    97   50   51 1    
    98   50   52 1    
    99   50  116 1    
   100   51  117 1    
   101   51  118 1    
   102   51  119 1    
   103   52   53 2    
   104   52   54 am   BACKBONE|DICT|INTERRES
   105   54   55 1    
   106   54  120 1    
   107   55   56 1    
   108   55   57 1    
   109   55  121 1    
   110   56  122 1    
   111   56  123 1    
   112   56  124 1    
   113   57   58 2    
   114   57   59 am   BACKBONE|DICT|INTERRES
   115   59   60 1    
   116   59  125 1    
   117   60   61 1    
   118   60   62 1    
   119   60  126 1    
   120   61  127 1    
   121   61  128 1    
   122   61  129 1    
   123   62   63 2    
   124   62   64 am   BACKBONE|DICT|INTERRES
   125   64   65 1    
   126   64  130 1    
   127   65   66 1    
   128   65   69 1    
   129   65  131 1    
   130   66   67 am   BACKBONE|DICT|INTERRES
   131   66   68 2    
   132   67  132 1    
   133   67  133 1    
   134   69   70 1    
   135   69  134 1    
   136   69  135 1    
   137   70   71 1    
   138   71  136 1    
   139   71  137 1    
@<TRIPOS>SUBSTRUCTURE
     1 UNK         1 GROUP             0       ****    0 ROOT    
