@<TRIPOS>MOLECULE
3R137
137   139    1
SMALL
USER_CHARGES


@<TRIPOS>ATOM
      1 CA         23.8831   -3.0393   -6.1440 C.3       0 UNK        -0.2020 
      2 C          25.0542   -3.5984   -6.9471 C.2       0 UNK         0.4855 
      3 O          25.1771   -3.2863   -8.1291 O.2       0 UNK        -0.5197 
      4 N          25.9217   -4.4452   -6.3763 N.am      1 UNK        -0.4892 
      5 CA         25.9526   -4.9169   -4.9862 C.3       1 UNK         0.0835 
      6 C6         26.8910   -6.1449   -4.8266 C.3       12 UNK        -0.0855 
      7 S7         28.5584   -5.9475   -5.5542 S.3       12 UNK        -0.2931 
      8 C8         29.6044   -5.5453   -4.1120 C.3       12 UNK         0.0378 
      9 C9         30.1638   -4.1301   -4.1939 C.ar      12 UNK        -0.0802 
     10 C10        30.9774   -3.7633   -5.2706 C.ar      12 UNK        -0.0944 
     11 C11        31.4875   -2.4668   -5.3702 C.ar      12 UNK        -0.0787 
     12 C12        31.1975   -1.5382   -4.3684 C.ar      12 UNK        -0.0862 
     13 C13        30.4016   -1.8924   -3.2753 C.ar      12 UNK        -0.0733 
     14 C14        29.8874   -3.1913   -3.1935 C.ar      12 UNK        -0.0832 
     15 C15        30.1265   -0.8797   -2.1706 C.3       12 UNK         0.0240 
     16 S16        28.5020   -0.0693   -2.3364 S.3       12 UNK        -0.2522 
     17 C17        28.7294    0.9846   -3.8103 C.3       12 UNK        -0.0967 
     18 CA         27.6764    0.6806   -4.9031 C.3       5 UNK         0.0660 
     19 N          26.3153    0.9743   -4.4351 N.am      5 UNK        -0.4015 
     20 C          25.1713    0.7627   -5.1013 C.2       4 UNK         0.4946 
     21 O          25.1258    0.3739   -6.2687 O.2       4 UNK        -0.5353 
     22 CA         23.8655    1.0533   -4.3341 C.3       4 UNK         0.0277 
     23 CB         22.6126    0.5399   -5.0679 C.3       4 UNK        -0.1981 
     24 N          23.9010    0.4784   -2.9877 N.am      4 UNK        -0.4209 
     25 C          24.4453    1.0541   -1.9100 C.2       3 UNK         0.4942 
     26 O          24.9417    2.1805   -1.9218 O.2       3 UNK        -0.5208 
     27 CA         24.5217    0.2082   -0.6296 C.3       3 UNK         0.0250 
     28 CB         23.1246   -0.1003   -0.0533 C.3       3 UNK        -0.1990 
     29 N          25.3362   -1.0036   -0.8003 N.am      3 UNK        -0.4232 
     30 C          25.0833   -2.0810   -1.5577 C.2       2 UNK         0.4993 
     31 O          24.0440   -2.2455   -2.2042 O.2       2 UNK        -0.5286 
     32 CA         26.1810   -3.1587   -1.5722 C.3       2 UNK         0.0209 
     33 CB         26.1809   -3.9572   -0.2577 C.3       2 UNK        -0.1931 
     34 N          26.0209   -4.0926   -2.6877 N.am      2 UNK        -0.4546 
     35 C          26.2858   -3.8040   -3.9689 C.2       1 UNK         0.5154 
     36 O          26.7641   -2.7325   -4.3429 O.2       1 UNK        -0.5181 
     37 C          28.0446    1.3911   -6.2199 C.2       5 UNK         0.5014 
     38 O          28.8707    0.8723   -6.9705 O.2       5 UNK        -0.5248 
     39 N          27.4152    2.5393   -6.5100 N.am      6 UNK        -0.4434 
     40 CA         27.5512    3.2727   -7.7715 C.3       6 UNK         0.0363 
     41 CB         26.7380    4.5739   -7.6972 C.3       6 UNK        -0.1936 
     42 C          27.1428    2.4511   -9.0092 C.2       6 UNK         0.5081 
     43 O          27.7558    2.6175  -10.0632 O.2       6 UNK        -0.5248 
     44 N          26.1690    1.5391   -8.8579 N.am      7 UNK        -0.4718 
     45 CA         25.7503    0.6031   -9.9083 C.3       7 UNK         0.0273 
     46 CB         24.4022   -0.0281   -9.5261 C.3       7 UNK        -0.1935 
     47 C          26.8004   -0.4871  -10.1958 C.2       7 UNK         0.5018 
     48 O          26.8178   -1.0280  -11.3019 O.2       7 UNK        -0.5186 
     49 N          27.6751   -0.7575   -9.2179 N.am      8 UNK        -0.4240 
     50 CA         28.8223   -1.6586   -9.3250 C.3       8 UNK         0.0235 
     51 CB         28.9530   -2.4385   -8.0050 C.3       8 UNK        -0.2000 
     52 C          30.1249   -0.9046   -9.6664 C.2       8 UNK         0.4941 
     53 O          31.1882   -1.5231   -9.6539 O.2       8 UNK        -0.5273 
     54 N          30.0297    0.4005   -9.9691 N.am      9 UNK        -0.4262 
     55 CA         31.1192    1.3328  -10.2833 C.3       9 UNK         0.0264 
     56 CB         31.9470    0.8690  -11.5021 C.3       9 UNK        -0.1955 
     57 C          31.9845    1.7124   -9.0650 C.2       9 UNK         0.5031 
     58 O          33.1827    1.9587   -9.2177 O.2       9 UNK        -0.5390 
     59 N          31.3576    1.7984   -7.8827 N.am      10 UNK        -0.4204 
     60 CA         31.8365    2.3771   -6.6177 C.3       10 UNK         0.0237 
     61 CB         32.1781    3.8705   -6.7850 C.3       10 UNK        -0.1985 
     62 C          32.9751    1.6304   -5.9017 C.2       10 UNK         0.4970 
     63 O          32.9893    1.6428   -4.6708 O.2       10 UNK        -0.4914 
     64 N          33.8911    1.0020   -6.6495 N.am      11 UNK        -0.4285 
     65 CA         35.0609    0.2561   -6.1457 C.3       11 UNK         0.1007 
     66 C          36.1164    1.1404   -5.4071 C.2       11 UNK         0.5703 
     67 N          36.1242    2.4553   -5.5955 N.am      11 UNK        -0.7361 
     68 O          36.9698    0.6321   -4.6833 O.2       11 UNK        -0.4986 
     69 C69        34.6610   -1.0263   -5.3489 C.3       12 UNK        -0.0947 
     70 S70        34.0772   -2.3765   -6.4265 S.3       12 UNK        -0.2240 
     71 C71        32.2942   -2.0590   -6.5934 C.3       12 UNK         0.0194 
     72 H72        24.2371   -2.3274   -5.3994 H         1 UNK         0.0906 
     73 H73        23.1920   -2.5112   -6.8007 H         1 UNK         0.0906 
     74 H74        23.3251   -3.8290   -5.6430 H         1 UNK         0.0906 
     75 H75        26.7069   -4.7632   -6.9263 H         1 UNK         0.3140 
     76 H76        24.9437   -5.2567   -4.7443 H         1 UNK         0.1085 
     77 H77        26.4330   -6.9940   -5.3366 H         1 UNK         0.0836 
     78 H78        26.9693   -6.4623   -3.7854 H         1 UNK         0.0836 
     79 H79        30.4374   -6.2488   -4.0792 H         1 UNK         0.0731 
     80 H80        29.0496   -5.6896   -3.1842 H         1 UNK         0.0731 
     81 H81        31.1922   -4.4843   -6.0475 H         1 UNK         0.1312 
     82 H82        31.5908   -0.5358   -4.4412 H         1 UNK         0.1406 
     83 H83        29.2708   -3.4693   -2.3509 H         1 UNK         0.1631 
     84 H84        30.9079   -0.1182   -2.1444 H         1 UNK         0.0717 
     85 H85        30.1660   -1.3828   -1.2034 H         1 UNK         0.0717 
     86 H86        28.6717    2.0294   -3.4992 H         1 UNK         0.0934 
     87 H87        29.7391    0.8478   -4.1980 H         1 UNK         0.0934 
     88 H88        27.7121   -0.3888   -5.1205 H         1 UNK         0.0739 
     89 H89        26.2426    1.3132   -3.4842 H         1 UNK         0.3093 
     90 H90        23.7790    2.1393   -4.2583 H         1 UNK         0.0818 
     91 H91        22.5420    0.9627   -6.0710 H         1 UNK         0.0819 
     92 H92        22.6190   -0.5448   -5.1695 H         1 UNK         0.0819 
     93 H93        21.7026    0.8191   -4.5368 H         1 UNK         0.0819 
     94 H94        23.6320   -0.4987   -2.8954 H         1 UNK         0.3041 
     95 H95        25.0469    0.8127    0.1119 H         1 UNK         0.0784 
     96 H96        22.5781    0.8216    0.1494 H         1 UNK         0.0793 
     97 H97        22.5132   -0.6927   -0.7343 H         1 UNK         0.0793 
     98 H98        23.1983   -0.6458    0.8875 H         1 UNK         0.0793 
     99 H99        26.2308   -0.9699   -0.3301 H         1 UNK         0.3024 
    100 H100       27.1434   -2.6560   -1.6823 H         1 UNK         0.1171 
    101 H101       25.2308   -4.4684   -0.0964 H         1 UNK         0.0786 
    102 H102       26.9717   -4.7078   -0.2495 H         1 UNK         0.0786 
    103 H103       26.3494   -3.3066    0.6015 H         1 UNK         0.0786 
    104 H104       25.5903   -4.9780   -2.4647 H         1 UNK         0.2977 
    105 H105       26.7496    2.9011   -5.8430 H         1 UNK         0.3127 
    106 H106       28.6053    3.5344   -7.8869 H         1 UNK         0.0770 
    107 H107       25.6745    4.3786   -7.5538 H         1 UNK         0.0814 
    108 H108       26.8418    5.1508   -8.6175 H         1 UNK         0.0814 
    109 H109       27.0780    5.2096   -6.8795 H         1 UNK         0.0814 
    110 H110       25.7511    1.4020   -7.9420 H         1 UNK         0.2983 
    111 H111       25.6095    1.1704  -10.8311 H         1 UNK         0.0947 
    112 H112       24.0381   -0.6797  -10.3215 H         1 UNK         0.0806 
    113 H113       23.6401    0.7314   -9.3522 H         1 UNK         0.0806 
    114 H114       24.4833   -0.6357   -8.6243 H         1 UNK         0.0806 
    115 H115       27.6067   -0.2366   -8.3521 H         1 UNK         0.3000 
    116 H116       28.6479   -2.3799  -10.1258 H         1 UNK         0.0850 
    117 H117       28.0204   -2.9366   -7.7435 H         1 UNK         0.0810 
    118 H118       29.2243   -1.7884   -7.1727 H         1 UNK         0.0810 
    119 H119       29.7165   -3.2128   -8.0811 H         1 UNK         0.0810 
    120 H120       29.1061    0.8160   -9.9587 H         1 UNK         0.3040 
    121 H121       30.6223    2.2588  -10.5767 H         1 UNK         0.0766 
    122 H122       32.5616   -0.0012  -11.2708 H         1 UNK         0.0812 
    123 H123       31.3054    0.6146  -12.3457 H         1 UNK         0.0812 
    124 H124       32.6220    1.6578  -11.8362 H         1 UNK         0.0812 
    125 H125       30.3998    1.4538   -7.8310 H         1 UNK         0.3205 
    126 H126       30.9815    2.3235   -5.9429 H         1 UNK         0.0754 
    127 H127       32.4389    4.3210   -5.8262 H         1 UNK         0.0769 
    128 H128       31.3299    4.4277   -7.1830 H         1 UNK         0.0769 
    129 H129       33.0244    4.0236   -7.4552 H         1 UNK         0.0769 
    130 H130       33.8224    1.1138   -7.6578 H         1 UNK         0.2981 
    131 H131       35.5927   -0.0728   -7.0389 H         1 UNK         0.0541 
    132 H132       36.8171    3.0166   -5.1261 H         1 UNK         0.3459 
    133 H133       35.4473    2.8886   -6.2022 H         1 UNK         0.3459 
    134 H134       33.9271   -0.8124   -4.5736 H         1 UNK         0.0612 
    135 H135       35.5217   -1.4393   -4.8213 H         1 UNK         0.0612 
    136 H136       32.1082   -1.0166   -6.8475 H         1 UNK         0.0624 
    137 H137       31.9484   -2.6366   -7.4497 H         1 UNK         0.0624 
@<TRIPOS>BOND
     1    1    2 1    
     2    1   72 1    
     3    1   73 1    
     4    1   74 1    
     5    2    3 2    
     6    2    4 am   BACKBONE|DICT|INTERRES
     7    4    5 1    
     8    4   75 1    
     9    5    6 1    
    10    5   35 1    
    11    5   76 1    
    12    6    7 1    
    13    6   77 1    
    14    6   78 1    
    15    7    8 1    
    16    8    9 1    
    17    8   79 1    
    18    8   80 1    
    19    9   10 ar   
    20    9   14 ar   
    21   10   11 ar   
    22   10   81 1    
    23   11   12 ar   
    24   11   71 1    
    25   12   13 ar   
    26   12   82 1    
    27   13   14 ar   
    28   13   15 1    
    29   14   83 1    
    30   15   16 1    
    31   15   84 1    
    32   15   85 1    
    33   16   17 1    
    34   17   18 1    
    35   17   86 1    
    36   17   87 1    
    37   18   19 1    
    38   18   37 1    
    39   18   88 1    
    40   19   20 am   BACKBONE|DICT|INTERRES
    41   19   89 1    
    42   20   21 2    
    43   20   22 1    
    44   22   23 1    
    45   22   24 1    
    46   22   90 1    
    47   23   91 1    
    48   23   92 1    
    49   23   93 1    
    50   24   25 am   BACKBONE|DICT|INTERRES
    51   24   94 1    
    52   25   26 2    
    53   25   27 1    
    54   27   28 1    
    55   27   29 1    
    56   27   95 1    
    57   28   96 1    
    58   28   97 1    
    59   28   98 1    
    60   29   30 am   BACKBONE|DICT|INTERRES
    61   29   99 1    
    62   30   31 2    
    63   30   32 1    
    64   32   33 1    
    65   32   34 1    
    66   32  100 1    
    67   33  101 1    
    68   33  102 1    
    69   33  103 1    
    70   34   35 am   BACKBONE|DICT|INTERRES
    71   34  104 1    
    72   35   36 2    
    73   37   38 2    
    74   37   39 am   BACKBONE|DICT|INTERRES
    75   39   40 1    
    76   39  105 1    
    77   40   41 1    
    78   40   42 1    
    79   40  106 1    
    80   41  107 1    
    81   41  108 1    
    82   41  109 1    
    83   42   43 2    
    84   42   44 am   BACKBONE|DICT|INTERRES
    85   44   45 1    
    86   44  110 1    
    87   45   46 1    
    88   45   47 1    
    89   45  111 1    
    90   46  112 1    
    91   46  113 1    
    92   46  114 1    
    93   47   48 2    
    94   47   49 am   BACKBONE|DICT|INTERRES
    95   49   50 1    
    96   49  115 1    
    97   50   51 1    
    98   50   52 1    
    99   50  116 1    
   100   51  117 1    
   101   51  118 1    
   102   51  119 1    
   103   52   53 2    
   104   52   54 am   BACKBONE|DICT|INTERRES
   105   54   55 1    
   106   54  120 1    
   107   55   56 1    
   108   55   57 1    
   109   55  121 1    
   110   56  122 1    
   111   56  123 1    
   112   56  124 1    
   113   57   58 2    
   114   57   59 am   BACKBONE|DICT|INTERRES
   115   59   60 1    
   116   59  125 1    
   117   60   61 1    
   118   60   62 1    
   119   60  126 1    
   120   61  127 1    
   121   61  128 1    
   122   61  129 1    
   123   62   63 2    
   124   62   64 am   BACKBONE|DICT|INTERRES
   125   64   65 1    
   126   64  130 1    
   127   65   66 1    
   128   65   69 1    
   129   65  131 1    
   130   66   67 am   BACKBONE|DICT|INTERRES
   131   66   68 2    
   132   67  132 1    
   133   67  133 1    
   134   69   70 1    
   135   69  134 1    
   136   69  135 1    
   137   70   71 1    
   138   71  136 1    
   139   71  137 1    
@<TRIPOS>SUBSTRUCTURE
     1 UNK         1 GROUP             0       ****    0 ROOT    
