@<TRIPOS>MOLECULE
3R137
137   139    1
SMALL
USER_CHARGES


@<TRIPOS>ATOM
      1 CA         27.4733   -5.8975   -6.6560 C.3       0 UNK        -0.2020 
      2 C          27.2231   -5.5078   -5.2074 C.2       0 UNK         0.4855 
      3 O          26.0684   -5.4183   -4.7891 O.2       0 UNK        -0.5197 
      4 N          28.2928   -5.2595   -4.4395 N.am      1 UNK        -0.4892 
      5 CA         28.2429   -4.8306   -3.0371 C.3       1 UNK         0.0835 
      6 C6         29.6589   -4.7884   -2.4166 C.3       12 UNK        -0.0855 
      7 S7         29.6215   -4.6158   -0.5985 S.3       12 UNK        -0.2931 
      8 C8         31.1722   -3.7162   -0.2712 C.3       12 UNK         0.0378 
      9 C9         31.1734   -2.3151   -0.8685 C.ar      12 UNK        -0.0802 
     10 C10        31.9772   -2.0237   -1.9744 C.ar      12 UNK        -0.0944 
     11 C11        31.9916   -0.7382   -2.5209 C.ar      12 UNK        -0.0787 
     12 C12        31.2077    0.2645   -1.9454 C.ar      12 UNK        -0.0862 
     13 C13        30.3785   -0.0178   -0.8540 C.ar      12 UNK        -0.0733 
     14 C14        30.3761   -1.3089   -0.3141 C.ar      12 UNK        -0.0832 
     15 C15        29.4729    1.0541   -0.2515 C.3       12 UNK         0.0240 
     16 S16        28.6433    2.1187   -1.4849 S.3       12 UNK        -0.2522 
     17 C17        27.7733    0.9085   -2.5392 C.3       12 UNK        -0.0967 
     18 CA         27.9479    1.2219   -4.0496 C.3       5 UNK         0.0660 
     19 N          27.8933    0.0103   -4.8724 N.am      5 UNK        -0.4015 
     20 C          28.0750   -0.0411   -6.2010 C.2       4 UNK         0.4946 
     21 O          28.3942    0.9256   -6.8922 O.2       4 UNK        -0.5353 
     22 CA         27.7829   -1.3866   -6.8832 C.3       4 UNK         0.0277 
     23 CB         28.9981   -2.3240   -6.8087 C.3       4 UNK        -0.1981 
     24 N          26.6002   -2.0365   -6.3126 N.am      4 UNK        -0.4209 
     25 C          25.3476   -1.5801   -6.4645 C.2       3 UNK         0.4942 
     26 O          25.0518   -0.6090   -7.1589 O.2       3 UNK        -0.5208 
     27 CA         24.2437   -2.2911   -5.6663 C.3       3 UNK         0.0250 
     28 CB         23.7290   -3.5260   -6.4221 C.3       3 UNK        -0.1990 
     29 N          24.6878   -2.6665   -4.3211 N.am      3 UNK        -0.4232 
     30 C          24.9358   -1.7750   -3.3482 C.2       2 UNK         0.4993 
     31 O          24.7738   -0.5623   -3.4807 O.2       2 UNK        -0.5286 
     32 CA         25.5074   -2.3061   -2.0214 C.3       2 UNK         0.0209 
     33 CB         24.3714   -2.6510   -1.0461 C.3       2 UNK        -0.1931 
     34 N          26.3876   -3.4673   -2.1788 N.am      2 UNK        -0.4546 
     35 C          27.5098   -3.4787   -2.9112 C.2       1 UNK         0.5154 
     36 O          27.9359   -2.4956   -3.5206 O.2       1 UNK        -0.5181 
     37 C          26.9327    2.2851   -4.5228 C.2       5 UNK         0.5014 
     38 O          27.3107    3.4405   -4.7221 O.2       5 UNK        -0.5248 
     39 N          25.6720    1.8670   -4.7170 N.am      6 UNK        -0.4434 
     40 CA         24.5774    2.7051   -5.2112 C.3       6 UNK         0.0363 
     41 CB         23.2471    1.9470   -5.0774 C.3       6 UNK        -0.1936 
     42 C          24.7837    3.1858   -6.6575 C.2       6 UNK         0.5081 
     43 O          24.5196    4.3537   -6.9454 O.2       6 UNK        -0.5248 
     44 N          25.2501    2.2898   -7.5392 N.am      7 UNK        -0.4718 
     45 CA         25.5568    2.5959   -8.9401 C.3       7 UNK         0.0273 
     46 CB         25.7378    1.2836   -9.7208 C.3       7 UNK        -0.1935 
     47 C          26.8004    3.4840   -9.1153 C.2       7 UNK         0.5018 
     48 O          26.8699    4.2249  -10.0967 O.2       7 UNK        -0.5186 
     49 N          27.7577    3.3670   -8.1826 N.am      8 UNK        -0.4240 
     50 CA         29.1031    3.9509   -8.1988 C.3       8 UNK         0.0235 
     51 CB         29.0488    5.4915   -8.1207 C.3       8 UNK        -0.2000 
     52 C          29.9398    3.4234   -9.3813 C.2       8 UNK         0.4941 
     53 O          30.6819    4.1850  -10.0052 O.2       8 UNK        -0.5273 
     54 N          29.7914    2.1264   -9.6756 N.am      9 UNK        -0.4262 
     55 CA         30.4208    1.4201  -10.7859 C.3       9 UNK         0.0264 
     56 CB         29.6524    1.7002  -12.0909 C.3       9 UNK        -0.1955 
     57 C          30.4219   -0.0769  -10.4642 C.2       9 UNK         0.5031 
     58 O          29.5561   -0.5323   -9.7149 O.2       9 UNK        -0.5390 
     59 N          31.3887   -0.8071  -11.0403 N.am      10 UNK        -0.4204 
     60 CA         31.6399   -2.2461  -10.8511 C.3       10 UNK         0.0237 
     61 CB         30.4733   -3.0895  -11.4113 C.3       10 UNK        -0.1985 
     62 C          32.0023   -2.6241   -9.3977 C.2       10 UNK         0.4970 
     63 O          31.7300   -3.7464   -8.9682 O.2       10 UNK        -0.4914 
     64 N          32.6153   -1.6800   -8.6716 N.am      11 UNK        -0.4285 
     65 CA         33.0112   -1.8130   -7.2612 C.3       11 UNK         0.1007 
     66 C          34.3316   -2.6042   -7.0258 C.2       11 UNK         0.5703 
     67 N          35.0792   -2.9776   -8.0579 N.am      11 UNK        -0.7361 
     68 O          34.6801   -2.8931   -5.8838 O.2       11 UNK        -0.4986 
     69 C69        33.0171   -0.4224   -6.5548 C.3       12 UNK        -0.0947 
     70 S70        31.7767   -0.3329   -5.2261 S.3       12 UNK        -0.2240 
     71 C71        32.8312   -0.4389   -3.7506 C.3       12 UNK         0.0194 
     72 H72        26.9887   -5.1869   -7.3252 H         1 UNK         0.0906 
     73 H73        28.5362   -5.9190   -6.8963 H         1 UNK         0.0906 
     74 H74        27.0605   -6.8863   -6.8536 H         1 UNK         0.0906 
     75 H75        29.2166   -5.3291   -4.8419 H         1 UNK         0.3140 
     76 H76        27.6664   -5.5883   -2.5015 H         1 UNK         0.1085 
     77 H77        30.2436   -3.9863   -2.8685 H         1 UNK         0.0836 
     78 H78        30.1932   -5.7129   -2.6416 H         1 UNK         0.0836 
     79 H79        32.0112   -4.3017   -0.6508 H         1 UNK         0.0731 
     80 H80        31.3163   -3.6446    0.8079 H         1 UNK         0.0731 
     81 H81        32.5843   -2.8009   -2.4184 H         1 UNK         0.1312 
     82 H82        31.2187    1.2572   -2.3739 H         1 UNK         0.1406 
     83 H83        29.7450   -1.5399    0.5336 H         1 UNK         0.1631 
     84 H84        30.0698    1.6841    0.4089 H         1 UNK         0.0717 
     85 H85        28.7028    0.5959    0.3712 H         1 UNK         0.0717 
     86 H86        28.1648   -0.0855   -2.3218 H         1 UNK         0.0934 
     87 H87        26.7228    0.8739   -2.2454 H         1 UNK         0.0934 
     88 H88        28.9486    1.6310   -4.2067 H         1 UNK         0.0739 
     89 H89        27.7246   -0.8650   -4.3817 H         1 UNK         0.3093 
     90 H90        27.5805   -1.1847   -7.9372 H         1 UNK         0.0818 
     91 H91        28.8244   -3.2481   -7.3588 H         1 UNK         0.0819 
     92 H92        29.8693   -1.8461   -7.2575 H         1 UNK         0.0819 
     93 H93        29.2632   -2.5789   -5.7829 H         1 UNK         0.0819 
     94 H94        26.7620   -2.7957   -5.6670 H         1 UNK         0.3041 
     95 H95        23.4105   -1.5927   -5.5610 H         1 UNK         0.0784 
     96 H96        23.3258   -3.2428   -7.3954 H         1 UNK         0.0793 
     97 H97        24.5187   -4.2558   -6.6001 H         1 UNK         0.0793 
     98 H98        22.9294   -4.0235   -5.8730 H         1 UNK         0.0793 
     99 H99        24.8936   -3.6461   -4.1600 H         1 UNK         0.3024 
    100 H100       26.1023   -1.5033   -1.5813 H         1 UNK         0.1171 
    101 H101       24.7599   -2.9343   -0.0676 H         1 UNK         0.0786 
    102 H102       23.7139   -1.7934   -0.8950 H         1 UNK         0.0786 
    103 H103       23.7561   -3.4724   -1.4154 H         1 UNK         0.0786 
    104 H104       26.0942   -4.3207   -1.7250 H         1 UNK         0.2977 
    105 H105       25.4289    0.9114   -4.4631 H         1 UNK         0.3127 
    106 H106       24.5281    3.5905   -4.5738 H         1 UNK         0.0770 
    107 H107       23.2449    1.0294   -5.6669 H         1 UNK         0.0814 
    108 H108       22.4120    2.5589   -5.4209 H         1 UNK         0.0814 
    109 H109       23.0471    1.6774   -4.0402 H         1 UNK         0.0814 
    110 H110       25.3754    1.3246   -7.2445 H         1 UNK         0.2983 
    111 H111       24.7062    3.1333   -9.3651 H         1 UNK         0.0947 
    112 H112       26.5675    0.6933   -9.3287 H         1 UNK         0.0806 
    113 H113       25.9462    1.4791  -10.7736 H         1 UNK         0.0806 
    114 H114       24.8393    0.6680   -9.6766 H         1 UNK         0.0806 
    115 H115       27.6200    2.6587   -7.4669 H         1 UNK         0.3000 
    116 H116       29.5959    3.5915   -7.2939 H         1 UNK         0.0850 
    117 H117       28.4485    5.8226   -7.2732 H         1 UNK         0.0810 
    118 H118       28.6261    5.9306   -9.0247 H         1 UNK         0.0810 
    119 H119       30.0479    5.9101   -7.9939 H         1 UNK         0.0810 
    120 H120       29.2201    1.5375   -9.0760 H         1 UNK         0.3040 
    121 H121       31.4540    1.7598  -10.8844 H         1 UNK         0.0766 
    122 H122       30.0957    1.1663  -12.9323 H         1 UNK         0.0812 
    123 H123       29.6635    2.7615  -12.3399 H         1 UNK         0.0812 
    124 H124       28.6101    1.3869  -12.0160 H         1 UNK         0.0812 
    125 H125       32.0393   -0.3323  -11.6522 H         1 UNK         0.3205 
    126 H126       32.5239   -2.4793  -11.4463 H         1 UNK         0.0754 
    127 H127       30.7239   -4.1510  -11.4170 H         1 UNK         0.0769 
    128 H128       30.2374   -2.8087  -12.4378 H         1 UNK         0.0769 
    129 H129       29.5672   -2.9743  -10.8153 H         1 UNK         0.0769 
    130 H130       32.8248   -0.7964   -9.1095 H         1 UNK         0.2981 
    131 H131       32.2497   -2.4369   -6.7891 H         1 UNK         0.0541 
    132 H132       35.9287   -3.4932   -7.8896 H         1 UNK         0.3459 
    133 H133       34.8039   -2.7514   -8.9997 H         1 UNK         0.3459 
    134 H134       33.9984   -0.1607   -6.1534 H         1 UNK         0.0612 
    135 H135       32.7813    0.3793   -7.2566 H         1 UNK         0.0612 
    136 H136       33.5839   -1.2155   -3.8950 H         1 UNK         0.0624 
    137 H137       33.3695    0.5007   -3.6186 H         1 UNK         0.0624 
@<TRIPOS>BOND
     1    1    2 1    
     2    1   72 1    
     3    1   73 1    
     4    1   74 1    
     5    2    3 2    
     6    2    4 am   BACKBONE|DICT|INTERRES
     7    4    5 1    
     8    4   75 1    
     9    5    6 1    
    10    5   35 1    
    11    5   76 1    
    12    6    7 1    
    13    6   77 1    
    14    6   78 1    
    15    7    8 1    
    16    8    9 1    
    17    8   79 1    
    18    8   80 1    
    19    9   10 ar   
    20    9   14 ar   
    21   10   11 ar   
    22   10   81 1    
    23   11   12 ar   
    24   11   71 1    
    25   12   13 ar   
    26   12   82 1    
    27   13   14 ar   
    28   13   15 1    
    29   14   83 1    
    30   15   16 1    
    31   15   84 1    
    32   15   85 1    
    33   16   17 1    
    34   17   18 1    
    35   17   86 1    
    36   17   87 1    
    37   18   19 1    
    38   18   37 1    
    39   18   88 1    
    40   19   20 am   BACKBONE|DICT|INTERRES
    41   19   89 1    
    42   20   21 2    
    43   20   22 1    
    44   22   23 1    
    45   22   24 1    
    46   22   90 1    
    47   23   91 1    
    48   23   92 1    
    49   23   93 1    
    50   24   25 am   BACKBONE|DICT|INTERRES
    51   24   94 1    
    52   25   26 2    
    53   25   27 1    
    54   27   28 1    
    55   27   29 1    
    56   27   95 1    
    57   28   96 1    
    58   28   97 1    
    59   28   98 1    
    60   29   30 am   BACKBONE|DICT|INTERRES
    61   29   99 1    
    62   30   31 2    
    63   30   32 1    
    64   32   33 1    
    65   32   34 1    
    66   32  100 1    
    67   33  101 1    
    68   33  102 1    
    69   33  103 1    
    70   34   35 am   BACKBONE|DICT|INTERRES
    71   34  104 1    
    72   35   36 2    
    73   37   38 2    
    74   37   39 am   BACKBONE|DICT|INTERRES
    75   39   40 1    
    76   39  105 1    
    77   40   41 1    
    78   40   42 1    
    79   40  106 1    
    80   41  107 1    
    81   41  108 1    
    82   41  109 1    
    83   42   43 2    
    84   42   44 am   BACKBONE|DICT|INTERRES
    85   44   45 1    
    86   44  110 1    
    87   45   46 1    
    88   45   47 1    
    89   45  111 1    
    90   46  112 1    
    91   46  113 1    
    92   46  114 1    
    93   47   48 2    
    94   47   49 am   BACKBONE|DICT|INTERRES
    95   49   50 1    
    96   49  115 1    
    97   50   51 1    
    98   50   52 1    
    99   50  116 1    
   100   51  117 1    
   101   51  118 1    
   102   51  119 1    
   103   52   53 2    
   104   52   54 am   BACKBONE|DICT|INTERRES
   105   54   55 1    
   106   54  120 1    
   107   55   56 1    
   108   55   57 1    
   109   55  121 1    
   110   56  122 1    
   111   56  123 1    
   112   56  124 1    
   113   57   58 2    
   114   57   59 am   BACKBONE|DICT|INTERRES
   115   59   60 1    
   116   59  125 1    
   117   60   61 1    
   118   60   62 1    
   119   60  126 1    
   120   61  127 1    
   121   61  128 1    
   122   61  129 1    
   123   62   63 2    
   124   62   64 am   BACKBONE|DICT|INTERRES
   125   64   65 1    
   126   64  130 1    
   127   65   66 1    
   128   65   69 1    
   129   65  131 1    
   130   66   67 am   BACKBONE|DICT|INTERRES
   131   66   68 2    
   132   67  132 1    
   133   67  133 1    
   134   69   70 1    
   135   69  134 1    
   136   69  135 1    
   137   70   71 1    
   138   71  136 1    
   139   71  137 1    
@<TRIPOS>SUBSTRUCTURE
     1 UNK         1 GROUP             0       ****    0 ROOT    
