@<TRIPOS>MOLECULE
3R137
137   139    1
SMALL
USER_CHARGES


@<TRIPOS>ATOM
      1 CA         27.5059   -6.8935   -0.7593 C.3       0 UNK        -0.2020 
      2 C          27.2095   -5.5517   -0.1067 C.2       0 UNK         0.4855 
      3 O          26.3991   -5.4845    0.8175 O.2       0 UNK        -0.5197 
      4 N          27.8606   -4.4826   -0.5821 N.am      1 UNK        -0.4892 
      5 CA         27.6914   -3.1089   -0.0904 C.3       1 UNK         0.0835 
      6 C6         28.8631   -2.1936   -0.5206 C.3       12 UNK        -0.0855 
      7 S7         30.4759   -2.6922    0.1872 S.3       12 UNK        -0.2931 
      8 C8         31.1998   -3.8086   -1.0659 C.3       12 UNK         0.0378 
      9 C9         31.1302   -3.2393   -2.4755 C.ar      12 UNK        -0.0802 
     10 C10        31.9049   -2.1314   -2.8302 C.ar      12 UNK        -0.0944 
     11 C11        31.8068   -1.5770   -4.1100 C.ar      12 UNK        -0.0787 
     12 C12        30.9190   -2.1348   -5.0363 C.ar      12 UNK        -0.0862 
     13 C13        30.1439   -3.2483   -4.6930 C.ar      12 UNK        -0.0733 
     14 C14        30.2692   -3.8068   -3.4191 C.ar      12 UNK        -0.0832 
     15 C15        29.1678   -3.8508   -5.6916 C.3       12 UNK         0.0240 
     16 S16        27.4403   -3.6602   -5.1334 S.3       12 UNK        -0.2522 
     17 C17        26.5675   -3.6381   -6.7394 C.3       12 UNK        -0.0967 
     18 CA         26.2286   -2.2387   -7.3307 C.3       5 UNK         0.0660 
     19 N          24.9515   -1.6904   -6.8650 N.am      5 UNK        -0.4015 
     20 C          24.2743   -0.7437   -7.5358 C.2       4 UNK         0.4946 
     21 O          24.6585   -0.2518   -8.5979 O.2       4 UNK        -0.5353 
     22 CA         22.9667   -0.2345   -6.9096 C.3       4 UNK         0.0277 
     23 CB         21.8285   -1.2458   -7.1220 C.3       4 UNK        -0.1981 
     24 N          23.1019    0.0683   -5.4851 N.am      4 UNK        -0.4209 
     25 C          23.8858    1.0338   -4.9831 C.2       3 UNK         0.4942 
     26 O          24.5520    1.8049   -5.6709 O.2       3 UNK        -0.5208 
     27 CA         23.9718    1.1279   -3.4504 C.3       3 UNK         0.0250 
     28 CB         22.8685    2.0470   -2.9025 C.3       3 UNK        -0.1990 
     29 N          23.9044   -0.1769   -2.7832 N.am      3 UNK        -0.4232 
     30 C          24.7906   -1.1649   -2.9663 C.2       2 UNK         0.4993 
     31 O          25.7498   -1.0907   -3.7381 O.2       2 UNK        -0.5286 
     32 CA         24.5268   -2.4747   -2.2110 C.3       2 UNK         0.0209 
     33 CB         23.9325   -3.5313   -3.1573 C.3       2 UNK        -0.1931 
     34 N          25.7628   -2.9908   -1.6267 N.am      2 UNK        -0.4546 
     35 C          26.3469   -2.4888   -0.5291 C.2       1 UNK         0.5154 
     36 O          25.8620   -1.5724    0.1373 O.2       1 UNK        -0.5181 
     37 C          27.3584   -1.1968   -7.2113 C.2       5 UNK         0.5014 
     38 O          28.1656   -1.0913   -8.1320 O.2       5 UNK        -0.5248 
     39 N          27.3692   -0.4215   -6.1158 N.am      6 UNK        -0.4434 
     40 CA         28.3212    0.6664   -5.8839 C.3       6 UNK         0.0363 
     41 CB         28.1767    1.1737   -4.4415 C.3       6 UNK        -0.1936 
     42 C          28.1849    1.8216   -6.8920 C.2       6 UNK         0.5081 
     43 O          29.1879    2.4565   -7.2118 O.2       6 UNK        -0.5248 
     44 N          26.9653    2.0728   -7.3876 N.am      7 UNK        -0.4718 
     45 CA         26.7049    3.0155   -8.4758 C.3       7 UNK         0.0273 
     46 CB         25.2148    3.3927   -8.4940 C.3       7 UNK        -0.1935 
     47 C          27.1439    2.4586   -9.8401 C.2       7 UNK         0.5018 
     48 O          27.7564    3.1907  -10.6183 O.2       7 UNK        -0.5186 
     49 N          26.8148    1.1867  -10.1117 N.am      8 UNK        -0.4240 
     50 CA         27.1203    0.5035  -11.3719 C.3       8 UNK         0.0235 
     51 CB         26.3123   -0.8015  -11.4591 C.3       8 UNK        -0.2000 
     52 C          28.6193    0.2236  -11.5717 C.2       8 UNK         0.4941 
     53 O          29.1335    0.4485  -12.6683 O.2       8 UNK        -0.5273 
     54 N          29.2856   -0.2670  -10.5219 N.am      9 UNK        -0.4262 
     55 CA         30.6967   -0.6340  -10.5014 C.3       9 UNK         0.0264 
     56 CB         30.8126   -2.1659  -10.3859 C.3       9 UNK        -0.1955 
     57 C          31.3573    0.0960   -9.3272 C.2       9 UNK         0.5031 
     58 O          31.5700   -0.4976   -8.2682 O.2       9 UNK        -0.5390 
     59 N          31.6393    1.3890   -9.5305 N.am      10 UNK        -0.4204 
     60 CA         32.2895    2.2609   -8.5516 C.3       10 UNK         0.0237 
     61 CB         32.2659    3.7104   -9.0631 C.3       10 UNK        -0.1985 
     62 C          33.7258    1.8093   -8.2438 C.2       10 UNK         0.4970 
     63 O          34.4968    1.5508   -9.1711 O.2       10 UNK        -0.4914 
     64 N          34.0505    1.7438   -6.9493 N.am      11 UNK        -0.4285 
     65 CA         35.3638    1.3326   -6.4304 C.3       11 UNK         0.1007 
     66 C          36.4324    2.4653   -6.4310 C.2       11 UNK         0.5703 
     67 N          36.0908    3.7094   -6.7469 N.am      11 UNK        -0.7361 
     68 O          37.6007    2.2069   -6.1509 O.2       11 UNK        -0.4986 
     69 C69        35.2295    0.6791   -5.0295 C.3       12 UNK        -0.0947 
     70 S70        34.2972   -0.8900   -5.0688 S.3       12 UNK        -0.2240 
     71 C71        32.6560   -0.3708   -4.4798 C.3       12 UNK         0.0194 
     72 H72        26.5947   -7.3117   -1.1863 H         1 UNK         0.0906 
     73 H73        28.2451   -6.8081   -1.5557 H         1 UNK         0.0906 
     74 H74        27.8874   -7.5948   -0.0175 H         1 UNK         0.0906 
     75 H75        28.5220   -4.5953   -1.3336 H         1 UNK         0.3140 
     76 H76        27.6749   -3.1436    1.0015 H         1 UNK         0.1085 
     77 H77        28.9183   -2.1150   -1.6068 H         1 UNK         0.0836 
     78 H78        28.6826   -1.1745   -0.1721 H         1 UNK         0.0836 
     79 H79        32.2433   -3.9945   -0.8072 H         1 UNK         0.0731 
     80 H80        30.7024   -4.7776   -1.0115 H         1 UNK         0.0731 
     81 H81        32.5769   -1.6940   -2.1041 H         1 UNK         0.1312 
     82 H82        30.8353   -1.7031   -6.0249 H         1 UNK         0.1406 
     83 H83        29.6722   -4.6707   -3.1639 H         1 UNK         0.1631 
     84 H84        29.2988   -3.3809   -6.6676 H         1 UNK         0.0717 
     85 H85        29.3874   -4.9104   -5.8284 H         1 UNK         0.0717 
     86 H86        27.1729   -4.1909   -7.4601 H         1 UNK         0.0934 
     87 H87        25.6556   -4.2284   -6.6370 H         1 UNK         0.0934 
     88 H88        26.0998   -2.4079   -8.4024 H         1 UNK         0.0739 
     89 H89        24.6193   -2.0021   -5.9647 H         1 UNK         0.3093 
     90 H90        22.6972    0.6921   -7.4215 H         1 UNK         0.0818 
     91 H91        20.8764   -0.8508   -6.7671 H         1 UNK         0.0819 
     92 H92        21.7057   -1.4761   -8.1814 H         1 UNK         0.0819 
     93 H93        22.0156   -2.1871   -6.6037 H         1 UNK         0.0819 
     94 H94        22.5824   -0.5086   -4.8403 H         1 UNK         0.3041 
     95 H95        24.9384    1.5726   -3.2049 H         1 UNK         0.0784 
     96 H96        22.9131    3.0309   -3.3719 H         1 UNK         0.0793 
     97 H97        21.8729    1.6422   -3.0886 H         1 UNK         0.0793 
     98 H98        22.9750    2.1986   -1.8281 H         1 UNK         0.0793 
     99 H99        23.1411   -0.3145   -2.1358 H         1 UNK         0.3024 
    100 H100       23.8131   -2.2897   -1.4047 H         1 UNK         0.1171 
    101 H101       23.7202   -4.4607   -2.6285 H         1 UNK         0.0786 
    102 H102       22.9933   -3.1856   -3.5912 H         1 UNK         0.0786 
    103 H103       24.6075   -3.7636   -3.9816 H         1 UNK         0.0786 
    104 H104       26.2482   -3.7083   -2.1446 H         1 UNK         0.2977 
    105 H105       26.7081   -0.6192   -5.3675 H         1 UNK         0.3127 
    106 H106       29.3256    0.2544   -6.0006 H         1 UNK         0.0770 
    107 H107       27.1841    1.5866   -4.2603 H         1 UNK         0.0814 
    108 H108       28.9036    1.9586   -4.2292 H         1 UNK         0.0814 
    109 H109       28.3435    0.3712   -3.7222 H         1 UNK         0.0814 
    110 H110       26.1668    1.5781   -7.0051 H         1 UNK         0.2983 
    111 H111       27.2794    3.9258   -8.2890 H         1 UNK         0.0947 
    112 H112       24.9987    4.0946   -9.3004 H         1 UNK         0.0806 
    113 H113       24.9177    3.8703   -7.5601 H         1 UNK         0.0806 
    114 H114       24.5766    2.5203   -8.6385 H         1 UNK         0.0806 
    115 H115       26.2666    0.6684   -9.4317 H         1 UNK         0.3000 
    116 H116       26.7964    1.1535  -12.1877 H         1 UNK         0.0850 
    117 H117       26.4999   -1.3156  -12.4027 H         1 UNK         0.0810 
    118 H118       25.2408   -0.6090  -11.4014 H         1 UNK         0.0810 
    119 H119       26.5713   -1.4901  -10.6542 H         1 UNK         0.0810 
    120 H120       28.7888   -0.4275   -9.6433 H         1 UNK         0.3040 
    121 H121       31.1998   -0.3202  -11.4184 H         1 UNK         0.0766 
    122 H122       30.3752   -2.6613  -11.2527 H         1 UNK         0.0812 
    123 H123       30.3069   -2.5429   -9.4955 H         1 UNK         0.0812 
    124 H124       31.8570   -2.4744  -10.3253 H         1 UNK         0.0812 
    125 H125       31.4250    1.7956  -10.4293 H         1 UNK         0.3205 
    126 H126       31.7076    2.2127   -7.6299 H         1 UNK         0.0754 
    127 H127       32.7195    4.3883   -8.3391 H         1 UNK         0.0769 
    128 H128       31.2437    4.0531   -9.2280 H         1 UNK         0.0769 
    129 H129       32.8139    3.8180  -10.0002 H         1 UNK         0.0769 
    130 H130       33.3620    1.9944   -6.2563 H         1 UNK         0.2981 
    131 H131       35.7617    0.5694   -7.1023 H         1 UNK         0.0541 
    132 H132       35.1391    3.9354   -6.9847 H         1 UNK         0.3459 
    133 H133       36.7967    4.4288   -6.7479 H         1 UNK         0.3459 
    134 H134       34.7719    1.3711   -4.3205 H         1 UNK         0.0612 
    135 H135       36.2143    0.4419   -4.6226 H         1 UNK         0.0612 
    136 H136       32.7634    0.2805   -3.6111 H         1 UNK         0.0624 
    137 H137       32.1619    0.2174   -5.2547 H         1 UNK         0.0624 
@<TRIPOS>BOND
     1    1    2 1    
     2    1   72 1    
     3    1   73 1    
     4    1   74 1    
     5    2    3 2    
     6    2    4 am   BACKBONE|DICT|INTERRES
     7    4    5 1    
     8    4   75 1    
     9    5    6 1    
    10    5   35 1    
    11    5   76 1    
    12    6    7 1    
    13    6   77 1    
    14    6   78 1    
    15    7    8 1    
    16    8    9 1    
    17    8   79 1    
    18    8   80 1    
    19    9   10 ar   
    20    9   14 ar   
    21   10   11 ar   
    22   10   81 1    
    23   11   12 ar   
    24   11   71 1    
    25   12   13 ar   
    26   12   82 1    
    27   13   14 ar   
    28   13   15 1    
    29   14   83 1    
    30   15   16 1    
    31   15   84 1    
    32   15   85 1    
    33   16   17 1    
    34   17   18 1    
    35   17   86 1    
    36   17   87 1    
    37   18   19 1    
    38   18   37 1    
    39   18   88 1    
    40   19   20 am   BACKBONE|DICT|INTERRES
    41   19   89 1    
    42   20   21 2    
    43   20   22 1    
    44   22   23 1    
    45   22   24 1    
    46   22   90 1    
    47   23   91 1    
    48   23   92 1    
    49   23   93 1    
    50   24   25 am   BACKBONE|DICT|INTERRES
    51   24   94 1    
    52   25   26 2    
    53   25   27 1    
    54   27   28 1    
    55   27   29 1    
    56   27   95 1    
    57   28   96 1    
    58   28   97 1    
    59   28   98 1    
    60   29   30 am   BACKBONE|DICT|INTERRES
    61   29   99 1    
    62   30   31 2    
    63   30   32 1    
    64   32   33 1    
    65   32   34 1    
    66   32  100 1    
    67   33  101 1    
    68   33  102 1    
    69   33  103 1    
    70   34   35 am   BACKBONE|DICT|INTERRES
    71   34  104 1    
    72   35   36 2    
    73   37   38 2    
    74   37   39 am   BACKBONE|DICT|INTERRES
    75   39   40 1    
    76   39  105 1    
    77   40   41 1    
    78   40   42 1    
    79   40  106 1    
    80   41  107 1    
    81   41  108 1    
    82   41  109 1    
    83   42   43 2    
    84   42   44 am   BACKBONE|DICT|INTERRES
    85   44   45 1    
    86   44  110 1    
    87   45   46 1    
    88   45   47 1    
    89   45  111 1    
    90   46  112 1    
    91   46  113 1    
    92   46  114 1    
    93   47   48 2    
    94   47   49 am   BACKBONE|DICT|INTERRES
    95   49   50 1    
    96   49  115 1    
    97   50   51 1    
    98   50   52 1    
    99   50  116 1    
   100   51  117 1    
   101   51  118 1    
   102   51  119 1    
   103   52   53 2    
   104   52   54 am   BACKBONE|DICT|INTERRES
   105   54   55 1    
   106   54  120 1    
   107   55   56 1    
   108   55   57 1    
   109   55  121 1    
   110   56  122 1    
   111   56  123 1    
   112   56  124 1    
   113   57   58 2    
   114   57   59 am   BACKBONE|DICT|INTERRES
   115   59   60 1    
   116   59  125 1    
   117   60   61 1    
   118   60   62 1    
   119   60  126 1    
   120   61  127 1    
   121   61  128 1    
   122   61  129 1    
   123   62   63 2    
   124   62   64 am   BACKBONE|DICT|INTERRES
   125   64   65 1    
   126   64  130 1    
   127   65   66 1    
   128   65   69 1    
   129   65  131 1    
   130   66   67 am   BACKBONE|DICT|INTERRES
   131   66   68 2    
   132   67  132 1    
   133   67  133 1    
   134   69   70 1    
   135   69  134 1    
   136   69  135 1    
   137   70   71 1    
   138   71  136 1    
   139   71  137 1    
@<TRIPOS>SUBSTRUCTURE
     1 UNK         1 GROUP             0       ****    0 ROOT    
