@<TRIPOS>MOLECULE
3R137
137   139    1
SMALL
USER_CHARGES


@<TRIPOS>ATOM
      1 CA         28.2293   -1.0308    3.4985 C.3       0 UNK        -0.2020 
      2 C          28.3744   -0.2516    2.2002 C.2       0 UNK         0.4855 
      3 O          28.3058    0.9774    2.2122 O.2       0 UNK        -0.5197 
      4 N          28.5735   -0.9563    1.0790 N.am      1 UNK        -0.4892 
      5 CA         28.7074   -0.3796   -0.2660 C.3       1 UNK         0.0835 
      6 C6         29.4362   -1.3495   -1.2309 C.3       12 UNK        -0.0855 
      7 S7         28.6427   -2.9899   -1.3762 S.3       12 UNK        -0.2931 
      8 C8         29.9952   -3.9759   -2.0928 C.3       12 UNK         0.0378 
      9 C9         30.0536   -3.8388   -3.6073 C.ar      12 UNK        -0.0802 
     10 C10        30.8829   -2.8868   -4.2083 C.ar      12 UNK        -0.0944 
     11 C11        30.9404   -2.7756   -5.6016 C.ar      12 UNK        -0.0787 
     12 C12        30.1726   -3.6351   -6.3958 C.ar      12 UNK        -0.0862 
     13 C13        29.3436   -4.5937   -5.8044 C.ar      12 UNK        -0.0733 
     14 C14        29.2844   -4.6846   -4.4110 C.ar      12 UNK        -0.0832 
     15 C15        28.5330   -5.5596   -6.6561 C.3       12 UNK         0.0240 
     16 S16        26.8332   -4.9671   -6.9376 S.3       12 UNK        -0.2522 
     17 C17        26.9353   -4.2597   -8.6214 C.3       12 UNK        -0.0967 
     18 CA         26.4852   -2.7828   -8.7266 C.3       5 UNK         0.0660 
     19 N          25.1451   -2.5558   -8.1821 N.am      5 UNK        -0.4015 
     20 C          24.4229   -1.4446   -8.3846 C.2       4 UNK         0.4946 
     21 O          24.7773   -0.5212   -9.1178 O.2       4 UNK        -0.5353 
     22 CA         23.1135   -1.3220   -7.5868 C.3       4 UNK         0.0277 
     23 CB         21.9660   -2.0461   -8.3089 C.3       4 UNK        -0.1981 
     24 N          23.2372   -1.8272   -6.2135 N.am      4 UNK        -0.4209 
     25 C          24.0375   -1.2843   -5.2864 C.2       3 UNK         0.4942 
     26 O          24.7359   -0.2870   -5.4851 O.2       3 UNK        -0.5208 
     27 CA         24.1151   -2.0005   -3.9352 C.3       3 UNK         0.0250 
     28 CB         25.0933   -3.1903   -4.0006 C.3       3 UNK        -0.1990 
     29 N          24.5596   -1.0419   -2.9273 N.am      3 UNK        -0.4232 
     30 C          24.3583   -1.1528   -1.6109 C.2       2 UNK         0.4993 
     31 O          23.8073   -2.1192   -1.0786 O.2       2 UNK        -0.5286 
     32 CA         24.8883   -0.0068   -0.7393 C.3       2 UNK         0.0209 
     33 CB         24.0079    0.2313    0.5020 C.3       2 UNK        -0.1931 
     34 N          26.2400   -0.3425   -0.3014 N.am      2 UNK        -0.4546 
     35 C          27.3679    0.1256   -0.8514 C.2       1 UNK         0.5154 
     36 O          27.3829    0.9379   -1.7770 O.2       1 UNK        -0.5181 
     37 C          27.5279   -1.8171   -8.1340 C.2       5 UNK         0.5014 
     38 O          28.4193   -1.3858   -8.8635 O.2       5 UNK        -0.5248 
     39 N          27.3843   -1.4620   -6.8490 N.am      6 UNK        -0.4434 
     40 CA         28.2375   -0.4859   -6.1747 C.3       6 UNK         0.0363 
     41 CB         28.0479   -0.5560   -4.6556 C.3       6 UNK        -0.1936 
     42 C          28.0177    0.9332   -6.7042 C.2       6 UNK         0.5081 
     43 O          28.9948    1.6246   -6.9849 O.2       6 UNK        -0.5248 
     44 N          26.7486    1.3180   -6.8940 N.am      7 UNK        -0.4718 
     45 CA         26.3551    2.5833   -7.5186 C.3       7 UNK         0.0273 
     46 CB         24.8269    2.7307   -7.4531 C.3       7 UNK        -0.1935 
     47 C          26.8592    2.7246   -8.9675 C.2       7 UNK         0.5018 
     48 O          27.2227    3.8293   -9.3728 O.2       7 UNK        -0.5186 
     49 N          26.8852    1.6086   -9.7090 N.am      8 UNK        -0.4240 
     50 CA         27.4052    1.5311  -11.0719 C.3       8 UNK         0.0235 
     51 CB         26.8402    0.2817  -11.7692 C.3       8 UNK        -0.2000 
     52 C          28.9431    1.5484  -11.1298 C.2       8 UNK         0.4941 
     53 O          29.5076    2.4025  -11.8147 O.2       8 UNK        -0.5273 
     54 N          29.5928    0.5843  -10.4614 N.am      9 UNK        -0.4262 
     55 CA         31.0223    0.3006  -10.6250 C.3       9 UNK         0.0264 
     56 CB         31.2645   -1.2070  -10.4407 C.3       9 UNK        -0.1955 
     57 C          31.9471    1.1046   -9.6988 C.2       9 UNK         0.5031 
     58 O          33.1397    1.1865   -9.9989 O.2       9 UNK        -0.5390 
     59 N          31.4247    1.6526   -8.5909 N.am      10 UNK        -0.4204 
     60 CA         32.1101    2.4354   -7.5475 C.3       10 UNK         0.0237 
     61 CB         32.7327    3.7246   -8.1195 C.3       10 UNK        -0.1985 
     62 C          33.1332    1.6526   -6.7006 C.2       10 UNK         0.4970 
     63 O          33.1415    1.8192   -5.4810 O.2       10 UNK        -0.4914 
     64 N          33.9685    0.8280   -7.3451 N.am      11 UNK        -0.4285 
     65 CA         35.0506    0.0182   -6.7530 C.3       11 UNK         0.1007 
     66 C          36.2143    0.8510   -6.1294 C.2       11 UNK         0.5703 
     67 N          36.3727    2.1242   -6.4723 N.am      11 UNK        -0.7361 
     68 O          37.0109    0.3329   -5.3498 O.2       11 UNK        -0.4986 
     69 C69        34.5313   -1.1030   -5.8038 C.3       12 UNK        -0.0947 
     70 S70        33.4624   -2.3145   -6.6526 S.3       12 UNK        -0.2240 
     71 C71        31.8016   -1.7003   -6.2464 C.3       12 UNK         0.0194 
     72 H72        28.3198   -2.1056    3.3421 H         1 UNK         0.0906 
     73 H73        28.9989   -0.7259    4.2069 H         1 UNK         0.0906 
     74 H74        27.2560   -0.8341    3.9474 H         1 UNK         0.0906 
     75 H75        28.6236   -1.9656    1.1178 H         1 UNK         0.3140 
     76 H76        29.3368    0.5091   -0.1759 H         1 UNK         0.1085 
     77 H77        30.4576   -1.4926   -0.8749 H         1 UNK         0.0836 
     78 H78        29.5367   -0.9100   -2.2230 H         1 UNK         0.0836 
     79 H79        29.8387   -5.0226   -1.8279 H         1 UNK         0.0731 
     80 H80        30.9488   -3.6949   -1.6437 H         1 UNK         0.0731 
     81 H81        31.4770   -2.2260   -3.5921 H         1 UNK         0.1312 
     82 H82        30.2166   -3.5520   -7.4732 H         1 UNK         0.1406 
     83 H83        28.6414   -5.4220   -3.9496 H         1 UNK         0.1631 
     84 H84        28.4768   -6.5245   -6.1504 H         1 UNK         0.0717 
     85 H85        29.0392   -5.7565   -7.6015 H         1 UNK         0.0717 
     86 H86        27.9430   -4.3735   -9.0248 H         1 UNK         0.0934 
     87 H87        26.3022   -4.8710   -9.2662 H         1 UNK         0.0934 
     88 H88        26.4306   -2.5481   -9.7920 H         1 UNK         0.0739 
     89 H89        24.7851   -3.2725   -7.5692 H         1 UNK         0.3093 
     90 H90        22.8640   -0.2600   -7.5302 H         1 UNK         0.0818 
     91 H91        21.0153   -1.8897   -7.7988 H         1 UNK         0.0819 
     92 H92        21.8496   -1.6715   -9.3270 H         1 UNK         0.0819 
     93 H93        22.1393   -3.1209   -8.3751 H         1 UNK         0.0819 
     94 H94        22.6903   -2.6425   -5.9746 H         1 UNK         0.3041 
     95 H95        23.1161   -2.3570   -3.6747 H         1 UNK         0.0784 
     96 H96        24.7834   -3.9172   -4.7520 H         1 UNK         0.0793 
     97 H97        26.1061   -2.8721   -4.2492 H         1 UNK         0.0793 
     98 H98        25.1412   -3.7179   -3.0479 H         1 UNK         0.0793 
     99 H99        25.0034   -0.2152   -3.3102 H         1 UNK         0.3024 
    100 H100       24.8889    0.9128   -1.3298 H         1 UNK         0.1171 
    101 H101       24.3711    1.0776    1.0854 H         1 UNK         0.0786 
    102 H102       22.9798    0.4539    0.2131 H         1 UNK         0.0786 
    103 H103       23.9819   -0.6388    1.1594 H         1 UNK         0.0786 
    104 H104       26.3212   -1.0406    0.4237 H         1 UNK         0.2977 
    105 H105       26.6106   -1.8362   -6.3221 H         1 UNK         0.3127 
    106 H106       29.2703   -0.7446   -6.3923 H         1 UNK         0.0770 
    107 H107       27.0435   -0.2704   -4.3498 H         1 UNK         0.0814 
    108 H108       28.2439   -1.5580   -4.2754 H         1 UNK         0.0814 
    109 H109       28.7380    0.1255   -4.1578 H         1 UNK         0.0814 
    110 H110       26.0018    0.6993   -6.5879 H         1 UNK         0.2983 
    111 H111       26.8037    3.3908   -6.9361 H         1 UNK         0.0947 
    112 H112       24.4685    2.6913   -6.4241 H         1 UNK         0.0806 
    113 H113       24.3211    1.9433   -8.0126 H         1 UNK         0.0806 
    114 H114       24.5087    3.6860   -7.8726 H         1 UNK         0.0806 
    115 H115       26.4989    0.7595   -9.3119 H         1 UNK         0.3000 
    116 H116       27.0458    2.4042  -11.6213 H         1 UNK         0.0850 
    117 H117       27.1991    0.2121  -12.7969 H         1 UNK         0.0810 
    118 H118       25.7510    0.3096  -11.8068 H         1 UNK         0.0810 
    119 H119       27.1301   -0.6371  -11.2591 H         1 UNK         0.0810 
    120 H120       29.0636   -0.0825   -9.8984 H         1 UNK         0.3040 
    121 H121       31.3115    0.5498  -11.6483 H         1 UNK         0.0766 
    122 H122       31.0031   -1.5415   -9.4380 H         1 UNK         0.0812 
    123 H123       32.3133   -1.4593  -10.6035 H         1 UNK         0.0812 
    124 H124       30.6775   -1.7913  -11.1491 H         1 UNK         0.0812 
    125 H125       30.4381    1.4993   -8.4006 H         1 UNK         0.3205 
    126 H126       31.3253    2.7469   -6.8573 H         1 UNK         0.0754 
    127 H127       33.1391    4.3465   -7.3209 H         1 UNK         0.0769 
    128 H128       31.9883    4.3213   -8.6469 H         1 UNK         0.0769 
    129 H129       33.5476    3.5170   -8.8133 H         1 UNK         0.0769 
    130 H130       33.8876    0.7956   -8.3588 H         1 UNK         0.2981 
    131 H131       35.5186   -0.4817   -7.6014 H         1 UNK         0.0541 
    132 H132       35.7412    2.5604   -7.1239 H         1 UNK         0.3459 
    133 H133       37.1338    2.6508   -6.0740 H         1 UNK         0.3459 
    134 H134       34.0217   -0.6832   -4.9360 H         1 UNK         0.0612 
    135 H135       35.3688   -1.6752   -5.4019 H         1 UNK         0.0612 
    136 H136       31.8553   -0.8331   -5.5880 H         1 UNK         0.0624 
    137 H137       31.3372   -1.3447   -7.1654 H         1 UNK         0.0624 
@<TRIPOS>BOND
     1    1    2 1    
     2    1   72 1    
     3    1   73 1    
     4    1   74 1    
     5    2    3 2    
     6    2    4 am   BACKBONE|DICT|INTERRES
     7    4    5 1    
     8    4   75 1    
     9    5    6 1    
    10    5   35 1    
    11    5   76 1    
    12    6    7 1    
    13    6   77 1    
    14    6   78 1    
    15    7    8 1    
    16    8    9 1    
    17    8   79 1    
    18    8   80 1    
    19    9   10 ar   
    20    9   14 ar   
    21   10   11 ar   
    22   10   81 1    
    23   11   12 ar   
    24   11   71 1    
    25   12   13 ar   
    26   12   82 1    
    27   13   14 ar   
    28   13   15 1    
    29   14   83 1    
    30   15   16 1    
    31   15   84 1    
    32   15   85 1    
    33   16   17 1    
    34   17   18 1    
    35   17   86 1    
    36   17   87 1    
    37   18   19 1    
    38   18   37 1    
    39   18   88 1    
    40   19   20 am   BACKBONE|DICT|INTERRES
    41   19   89 1    
    42   20   21 2    
    43   20   22 1    
    44   22   23 1    
    45   22   24 1    
    46   22   90 1    
    47   23   91 1    
    48   23   92 1    
    49   23   93 1    
    50   24   25 am   BACKBONE|DICT|INTERRES
    51   24   94 1    
    52   25   26 2    
    53   25   27 1    
    54   27   28 1    
    55   27   29 1    
    56   27   95 1    
    57   28   96 1    
    58   28   97 1    
    59   28   98 1    
    60   29   30 am   BACKBONE|DICT|INTERRES
    61   29   99 1    
    62   30   31 2    
    63   30   32 1    
    64   32   33 1    
    65   32   34 1    
    66   32  100 1    
    67   33  101 1    
    68   33  102 1    
    69   33  103 1    
    70   34   35 am   BACKBONE|DICT|INTERRES
    71   34  104 1    
    72   35   36 2    
    73   37   38 2    
    74   37   39 am   BACKBONE|DICT|INTERRES
    75   39   40 1    
    76   39  105 1    
    77   40   41 1    
    78   40   42 1    
    79   40  106 1    
    80   41  107 1    
    81   41  108 1    
    82   41  109 1    
    83   42   43 2    
    84   42   44 am   BACKBONE|DICT|INTERRES
    85   44   45 1    
    86   44  110 1    
    87   45   46 1    
    88   45   47 1    
    89   45  111 1    
    90   46  112 1    
    91   46  113 1    
    92   46  114 1    
    93   47   48 2    
    94   47   49 am   BACKBONE|DICT|INTERRES
    95   49   50 1    
    96   49  115 1    
    97   50   51 1    
    98   50   52 1    
    99   50  116 1    
   100   51  117 1    
   101   51  118 1    
   102   51  119 1    
   103   52   53 2    
   104   52   54 am   BACKBONE|DICT|INTERRES
   105   54   55 1    
   106   54  120 1    
   107   55   56 1    
   108   55   57 1    
   109   55  121 1    
   110   56  122 1    
   111   56  123 1    
   112   56  124 1    
   113   57   58 2    
   114   57   59 am   BACKBONE|DICT|INTERRES
   115   59   60 1    
   116   59  125 1    
   117   60   61 1    
   118   60   62 1    
   119   60  126 1    
   120   61  127 1    
   121   61  128 1    
   122   61  129 1    
   123   62   63 2    
   124   62   64 am   BACKBONE|DICT|INTERRES
   125   64   65 1    
   126   64  130 1    
   127   65   66 1    
   128   65   69 1    
   129   65  131 1    
   130   66   67 am   BACKBONE|DICT|INTERRES
   131   66   68 2    
   132   67  132 1    
   133   67  133 1    
   134   69   70 1    
   135   69  134 1    
   136   69  135 1    
   137   70   71 1    
   138   71  136 1    
   139   71  137 1    
@<TRIPOS>SUBSTRUCTURE
     1 UNK         1 GROUP             0       ****    0 ROOT    
