@<TRIPOS>MOLECULE
3R137
137   139    1
SMALL
USER_CHARGES


@<TRIPOS>ATOM
      1 CA         26.8675    1.3142   -0.9397 C.3       0 UNK        -0.2020 
      2 C          27.0124   -0.1024   -1.4734 C.2       0 UNK         0.4855 
      3 O          26.8453   -0.3232   -2.6749 O.2       0 UNK        -0.5197 
      4 N          27.3314   -1.0597   -0.5908 N.am      1 UNK        -0.4892 
      5 CA         27.3807   -2.4960   -0.8889 C.3       1 UNK         0.0835 
      6 C6         27.9896   -3.2911    0.2925 C.3       12 UNK        -0.0855 
      7 S7         28.4965   -4.9821   -0.1776 S.3       12 UNK        -0.2931 
      8 C8         30.3072   -4.8282   -0.2926 C.3       12 UNK         0.0378 
      9 C9         30.7340   -3.9729   -1.4771 C.ar      12 UNK        -0.0802 
     10 C10        30.6855   -4.4942   -2.7729 C.ar      12 UNK        -0.0944 
     11 C11        31.0906   -3.7297   -3.8716 C.ar      12 UNK        -0.0787 
     12 C12        31.5619   -2.4286   -3.6502 C.ar      12 UNK        -0.0862 
     13 C13        31.6062   -1.8866   -2.3604 C.ar      12 UNK        -0.0733 
     14 C14        31.1933   -2.6685   -1.2781 C.ar      12 UNK        -0.0832 
     15 C15        32.0982   -0.4611   -2.1100 C.3       12 UNK         0.0240 
     16 S16        31.6256    0.7487   -3.3958 S.3       12 UNK        -0.2522 
     17 C17        29.8144    0.5581   -3.4464 C.3       12 UNK        -0.0967 
     18 CA         29.2324    0.8331   -4.8601 C.3       5 UNK         0.0660 
     19 N          28.2519   -0.1771   -5.2737 N.am      5 UNK        -0.4015 
     20 C          27.9216   -0.4157   -6.5517 C.2       4 UNK         0.4946 
     21 O          28.4203    0.1742   -7.5106 O.2       4 UNK        -0.5353 
     22 CA         26.8413   -1.4729   -6.8330 C.3       4 UNK         0.0277 
     23 CB         27.4838   -2.8574   -7.0074 C.3       4 UNK        -0.1981 
     24 N          25.7758   -1.5686   -5.8351 N.am      4 UNK        -0.4209 
     25 C          24.9767   -0.5826   -5.4109 C.2       3 UNK         0.4942 
     26 O          25.1025    0.5891   -5.7648 O.2       3 UNK        -0.5208 
     27 CA         23.8513   -0.9428   -4.4187 C.3       3 UNK         0.0250 
     28 CB         22.4949   -1.0336   -5.1430 C.3       3 UNK        -0.1990 
     29 N          24.0942   -2.1351   -3.5884 N.am      3 UNK        -0.4232 
     30 C          24.2319   -3.4198   -3.9517 C.2       2 UNK         0.4993 
     31 O          24.1326   -3.8138   -5.1142 O.2       2 UNK        -0.5286 
     32 CA         24.6563   -4.4018   -2.8414 C.3       2 UNK         0.0209 
     33 CB         24.8545   -5.8390   -3.3595 C.3       2 UNK        -0.1931 
     34 N          25.9023   -3.9487   -2.2154 N.am      2 UNK        -0.4546 
     35 C          25.9735   -3.0092   -1.2653 C.2       1 UNK         0.5154 
     36 O          24.9745   -2.5203   -0.7286 O.2       1 UNK        -0.5181 
     37 C          28.6336    2.2488   -4.9449 C.2       5 UNK         0.5014 
     38 O          29.3176    3.1718   -5.3869 O.2       5 UNK        -0.5248 
     39 N          27.3627    2.3921   -4.5365 N.am      6 UNK        -0.4434 
     40 CA         26.6060    3.6458   -4.6063 C.3       6 UNK         0.0363 
     41 CB         25.3147    3.5245   -3.7809 C.3       6 UNK        -0.1936 
     42 C          26.2932    4.0527   -6.0551 C.2       6 UNK         0.5081 
     43 O          26.3952    5.2321   -6.3931 O.2       6 UNK        -0.5248 
     44 N          25.9507    3.0624   -6.8892 N.am      7 UNK        -0.4718 
     45 CA         25.7509    3.2140   -8.3315 C.3       7 UNK         0.0273 
     46 CB         25.0216    1.9683   -8.8617 C.3       7 UNK        -0.1935 
     47 C          27.0621    3.4287   -9.1104 C.2       7 UNK         0.5018 
     48 O          27.0094    3.9469  -10.2263 O.2       7 UNK        -0.5186 
     49 N          28.1936    3.0046   -8.5239 N.am      8 UNK        -0.4240 
     50 CA         29.5397    2.9326   -9.1058 C.3       8 UNK         0.0235 
     51 CB         30.1110    4.3440   -9.3561 C.3       8 UNK        -0.2000 
     52 C          29.5599    2.0320  -10.3555 C.2       8 UNK         0.4941 
     53 O          30.0468    2.4398  -11.4119 O.2       8 UNK        -0.5273 
     54 N          28.9776    0.8328  -10.2126 N.am      9 UNK        -0.4262 
     55 CA         28.7291   -0.1198  -11.2982 C.3       9 UNK         0.0264 
     56 CB         27.7908   -1.2274  -10.7920 C.3       9 UNK        -0.1955 
     57 C          30.0095   -0.7254  -11.8963 C.2       9 UNK         0.5031 
     58 O          30.0511   -0.9774  -13.1015 O.2       9 UNK        -0.5390 
     59 N          31.0213   -0.9340  -11.0474 N.am      10 UNK        -0.4204 
     60 CA         32.3529   -1.4327  -11.3890 C.3       10 UNK         0.0237 
     61 CB         32.3150   -2.8892  -11.9012 C.3       10 UNK        -0.1985 
     62 C          33.2388   -1.3050  -10.1490 C.2       10 UNK         0.4970 
     63 O          34.2556   -0.6120  -10.1884 O.2       10 UNK        -0.4914 
     64 N          32.8049   -1.9548   -9.0633 N.am      11 UNK        -0.4285 
     65 CA         33.3781   -1.8385   -7.7189 C.3       11 UNK         0.1007 
     66 C          33.0967   -0.4597   -7.0547 C.2       11 UNK         0.5703 
     67 N          33.8511   -0.1119   -6.0213 N.am      11 UNK        -0.7361 
     68 O          32.2002    0.2833   -7.4520 O.2       11 UNK        -0.4986 
     69 C69        32.9409   -3.0337   -6.8302 C.3       12 UNK        -0.0947 
     70 S70        31.1285   -3.2156   -6.6774 S.3       12 UNK        -0.2240 
     71 C71        31.0053   -4.3633   -5.2630 C.3       12 UNK         0.0194 
     72 H72        27.4182    2.0175   -1.5627 H         1 UNK         0.0906 
     73 H73        25.8175    1.6048   -0.9442 H         1 UNK         0.0906 
     74 H74        27.2409    1.4045    0.0801 H         1 UNK         0.0906 
     75 H75        27.4275   -0.8140    0.3840 H         1 UNK         0.3140 
     76 H76        28.0321   -2.6118   -1.7587 H         1 UNK         0.1085 
     77 H77        27.2848   -3.3539    1.1242 H         1 UNK         0.0836 
     78 H78        28.8608   -2.7662    0.6872 H         1 UNK         0.0836 
     79 H79        30.7374   -5.8253   -0.3974 H         1 UNK         0.0731 
     80 H80        30.7007   -4.4273    0.6430 H         1 UNK         0.0731 
     81 H81        30.3277   -5.5038   -2.9248 H         1 UNK         0.1312 
     82 H82        31.8845   -1.8167   -4.4785 H         1 UNK         0.1406 
     83 H83        31.2325   -2.2618   -0.2766 H         1 UNK         0.1631 
     84 H84        33.1858   -0.4777   -2.0314 H         1 UNK         0.0717 
     85 H85        31.7241   -0.0952   -1.1524 H         1 UNK         0.0717 
     86 H86        29.5588   -0.4532   -3.1319 H         1 UNK         0.0934 
     87 H87        29.3886    1.2078   -2.6808 H         1 UNK         0.0934 
     88 H88        30.0475    0.7891   -5.5872 H         1 UNK         0.0739 
     89 H89        27.7426   -0.6436   -4.5310 H         1 UNK         0.3093 
     90 H90        26.3652   -1.1986   -7.7762 H         1 UNK         0.0818 
     91 H91        28.2682   -2.8337   -7.7646 H         1 UNK         0.0819 
     92 H92        27.9381   -3.2097   -6.0804 H         1 UNK         0.0819 
     93 H93        26.7513   -3.5994   -7.3259 H         1 UNK         0.0819 
     94 H94        25.5156   -2.5044   -5.5421 H         1 UNK         0.3041 
     95 H95        23.7959   -0.1086   -3.7174 H         1 UNK         0.0784 
     96 H96        21.6801   -1.2037   -4.4394 H         1 UNK         0.0793 
     97 H97        22.2758   -0.1064   -5.6746 H         1 UNK         0.0793 
     98 H98        22.4782   -1.8387   -5.8781 H         1 UNK         0.0793 
     99 H99        24.2618   -1.9360   -2.6072 H         1 UNK         0.3024 
    100 H100       23.8553   -4.4208   -2.0983 H         1 UNK         0.1171 
    101 H101       25.1226   -6.5181   -2.5498 H         1 UNK         0.0786 
    102 H102       23.9378   -6.2213   -3.8109 H         1 UNK         0.0786 
    103 H103       25.6385   -5.8934   -4.1161 H         1 UNK         0.0786 
    104 H104       26.7607   -4.3121   -2.6051 H         1 UNK         0.2977 
    105 H105       26.8590    1.5708   -4.2258 H         1 UNK         0.3127 
    106 H106       27.2182    4.4357   -4.1657 H         1 UNK         0.0770 
    107 H107       24.6782    2.7136   -4.1362 H         1 UNK         0.0814 
    108 H108       24.7305    4.4440   -3.8365 H         1 UNK         0.0814 
    109 H109       25.5314    3.3465   -2.7285 H         1 UNK         0.0814 
    110 H110       25.8050    2.1314   -6.5009 H         1 UNK         0.2983 
    111 H111       25.1177    4.0873   -8.5022 H         1 UNK         0.0947 
    112 H112       25.6139    1.0642   -8.7152 H         1 UNK         0.0806 
    113 H113       24.8193    2.0573   -9.9299 H         1 UNK         0.0806 
    114 H114       24.0643    1.8249   -8.3601 H         1 UNK         0.0806 
    115 H115       28.1007    2.5691   -7.6160 H         1 UNK         0.3000 
    116 H116       30.1719    2.4441   -8.3616 H         1 UNK         0.0850 
    117 H117       31.1468    4.2895   -9.6932 H         1 UNK         0.0810 
    118 H118       30.0970    4.9419   -8.4447 H         1 UNK         0.0810 
    119 H119       29.5485    4.8818  -10.1198 H         1 UNK         0.0810 
    120 H120       28.6517    0.5739   -9.2813 H         1 UNK         0.3040 
    121 H121       28.2178    0.4198  -12.0983 H         1 UNK         0.0766 
    122 H122       27.5599   -1.9375  -11.5873 H         1 UNK         0.0812 
    123 H123       26.8444   -0.8160  -10.4404 H         1 UNK         0.0812 
    124 H124       28.2380   -1.7895   -9.9719 H         1 UNK         0.0812 
    125 H125       30.8975   -0.6363  -10.0879 H         1 UNK         0.3205 
    126 H126       32.7704   -0.7932  -12.1695 H         1 UNK         0.0754 
    127 H127       33.3239   -3.2823  -12.0345 H         1 UNK         0.0769 
    128 H128       31.8180   -2.9610  -12.8684 H         1 UNK         0.0769 
    129 H129       31.7929   -3.5527  -11.2111 H         1 UNK         0.0769 
    130 H130       31.9563   -2.4977   -9.1207 H         1 UNK         0.2981 
    131 H131       34.4618   -1.9044   -7.8348 H         1 UNK         0.0541 
    132 H132       33.6664    0.7654   -5.5614 H         1 UNK         0.3459 
    133 H133       34.5914   -0.7076   -5.6868 H         1 UNK         0.3459 
    134 H134       33.3291   -3.9601   -7.2561 H         1 UNK         0.0612 
    135 H135       33.3908   -2.9609   -5.8392 H         1 UNK         0.0612 
    136 H136       30.0484   -4.8798   -5.3514 H         1 UNK         0.0624 
    137 H137       31.7768   -5.1289   -5.3553 H         1 UNK         0.0624 
@<TRIPOS>BOND
     1    1    2 1    
     2    1   72 1    
     3    1   73 1    
     4    1   74 1    
     5    2    3 2    
     6    2    4 am   BACKBONE|DICT|INTERRES
     7    4    5 1    
     8    4   75 1    
     9    5    6 1    
    10    5   35 1    
    11    5   76 1    
    12    6    7 1    
    13    6   77 1    
    14    6   78 1    
    15    7    8 1    
    16    8    9 1    
    17    8   79 1    
    18    8   80 1    
    19    9   10 ar   
    20    9   14 ar   
    21   10   11 ar   
    22   10   81 1    
    23   11   12 ar   
    24   11   71 1    
    25   12   13 ar   
    26   12   82 1    
    27   13   14 ar   
    28   13   15 1    
    29   14   83 1    
    30   15   16 1    
    31   15   84 1    
    32   15   85 1    
    33   16   17 1    
    34   17   18 1    
    35   17   86 1    
    36   17   87 1    
    37   18   19 1    
    38   18   37 1    
    39   18   88 1    
    40   19   20 am   BACKBONE|DICT|INTERRES
    41   19   89 1    
    42   20   21 2    
    43   20   22 1    
    44   22   23 1    
    45   22   24 1    
    46   22   90 1    
    47   23   91 1    
    48   23   92 1    
    49   23   93 1    
    50   24   25 am   BACKBONE|DICT|INTERRES
    51   24   94 1    
    52   25   26 2    
    53   25   27 1    
    54   27   28 1    
    55   27   29 1    
    56   27   95 1    
    57   28   96 1    
    58   28   97 1    
    59   28   98 1    
    60   29   30 am   BACKBONE|DICT|INTERRES
    61   29   99 1    
    62   30   31 2    
    63   30   32 1    
    64   32   33 1    
    65   32   34 1    
    66   32  100 1    
    67   33  101 1    
    68   33  102 1    
    69   33  103 1    
    70   34   35 am   BACKBONE|DICT|INTERRES
    71   34  104 1    
    72   35   36 2    
    73   37   38 2    
    74   37   39 am   BACKBONE|DICT|INTERRES
    75   39   40 1    
    76   39  105 1    
    77   40   41 1    
    78   40   42 1    
    79   40  106 1    
    80   41  107 1    
    81   41  108 1    
    82   41  109 1    
    83   42   43 2    
    84   42   44 am   BACKBONE|DICT|INTERRES
    85   44   45 1    
    86   44  110 1    
    87   45   46 1    
    88   45   47 1    
    89   45  111 1    
    90   46  112 1    
    91   46  113 1    
    92   46  114 1    
    93   47   48 2    
    94   47   49 am   BACKBONE|DICT|INTERRES
    95   49   50 1    
    96   49  115 1    
    97   50   51 1    
    98   50   52 1    
    99   50  116 1    
   100   51  117 1    
   101   51  118 1    
   102   51  119 1    
   103   52   53 2    
   104   52   54 am   BACKBONE|DICT|INTERRES
   105   54   55 1    
   106   54  120 1    
   107   55   56 1    
   108   55   57 1    
   109   55  121 1    
   110   56  122 1    
   111   56  123 1    
   112   56  124 1    
   113   57   58 2    
   114   57   59 am   BACKBONE|DICT|INTERRES
   115   59   60 1    
   116   59  125 1    
   117   60   61 1    
   118   60   62 1    
   119   60  126 1    
   120   61  127 1    
   121   61  128 1    
   122   61  129 1    
   123   62   63 2    
   124   62   64 am   BACKBONE|DICT|INTERRES
   125   64   65 1    
   126   64  130 1    
   127   65   66 1    
   128   65   69 1    
   129   65  131 1    
   130   66   67 am   BACKBONE|DICT|INTERRES
   131   66   68 2    
   132   67  132 1    
   133   67  133 1    
   134   69   70 1    
   135   69  134 1    
   136   69  135 1    
   137   70   71 1    
   138   71  136 1    
   139   71  137 1    
@<TRIPOS>SUBSTRUCTURE
     1 UNK         1 GROUP             0       ****    0 ROOT    
