@<TRIPOS>MOLECULE
3R137
137   139    1
SMALL
USER_CHARGES


@<TRIPOS>ATOM
      1 CA         29.7806   -0.0680    3.2156 C.3       0 UNK        -0.2020 
      2 C          29.3714   -0.0732    1.7502 C.2       0 UNK         0.4855 
      3 O          28.6324    0.8120    1.3173 O.2       0 UNK        -0.5197 
      4 N          29.8530   -1.0572    0.9818 N.am      1 UNK        -0.4892 
      5 CA         29.5062   -1.2677   -0.4269 C.3       1 UNK         0.0835 
      6 C6         30.5742   -2.1173   -1.1590 C.3       12 UNK        -0.0855 
      7 S7         30.9528   -3.7258   -0.3703 S.3       12 UNK        -0.2931 
      8 C8         30.0573   -4.9059   -1.4445 C.3       12 UNK         0.0378 
      9 C9         30.4631   -4.8949   -2.9203 C.ar      12 UNK        -0.0802 
     10 C10        31.7190   -4.4438   -3.3485 C.ar      12 UNK        -0.0944 
     11 C11        32.0426   -4.4002   -4.7067 C.ar      12 UNK        -0.0787 
     12 C12        31.1175   -4.8708   -5.6433 C.ar      12 UNK        -0.0862 
     13 C13        29.8579   -5.3142   -5.2367 C.ar      12 UNK        -0.0733 
     14 C14        29.5413   -5.3362   -3.8753 C.ar      12 UNK        -0.0832 
     15 C15        28.8260   -5.7179   -6.2799 C.3       12 UNK         0.0240 
     16 S16        27.4172   -4.5617   -6.3329 S.3       12 UNK        -0.2522 
     17 C17        28.2311   -2.9249   -6.4361 C.3       12 UNK        -0.0967 
     18 CA         27.4634   -1.9278   -7.3354 C.3       5 UNK         0.0660 
     19 N          26.0421   -1.8432   -6.9877 N.am      5 UNK        -0.4015 
     20 C          25.0921   -1.3282   -7.7773 C.2       4 UNK         0.4946 
     21 O          25.3114   -0.8414   -8.8850 O.2       4 UNK        -0.5353 
     22 CA         23.6581   -1.3341   -7.2251 C.3       4 UNK         0.0277 
     23 CB         23.0104   -2.7156   -7.4113 C.3       4 UNK        -0.1981 
     24 N          23.5959   -0.9437   -5.8147 N.am      4 UNK        -0.4209 
     25 C          23.9001    0.2805   -5.3624 C.2       3 UNK         0.4942 
     26 O          24.2420    1.2150   -6.0862 O.2       3 UNK        -0.5208 
     27 CA         23.8548    0.4878   -3.8404 C.3       3 UNK         0.0250 
     28 CB         22.4147    0.7557   -3.3739 C.3       3 UNK        -0.1990 
     29 N          24.4320   -0.6131   -3.0586 N.am      3 UNK        -0.4232 
     30 C          25.6882   -1.0632   -3.1806 C.2       2 UNK         0.4993 
     31 O          26.4715   -0.7017   -4.0620 O.2       2 UNK        -0.5286 
     32 CA         26.1675   -2.0854   -2.1499 C.3       2 UNK         0.0209 
     33 CB         26.1468   -3.5116   -2.7242 C.3       2 UNK        -0.1931 
     34 N          27.5317   -1.7118   -1.7953 N.am      2 UNK        -0.4546 
     35 C          28.0866   -1.8536   -0.5887 C.2       1 UNK         0.5154 
     36 O          27.5295   -2.4226    0.3551 O.2       1 UNK        -0.5181 
     37 C          28.1248   -0.5347   -7.3177 C.2       5 UNK         0.5014 
     38 O          28.9583   -0.2393   -8.1782 O.2       5 UNK        -0.5248 
     39 N          27.7132    0.3126   -6.3633 N.am      6 UNK        -0.4434 
     40 CA         28.0755    1.7254   -6.2839 C.3       6 UNK         0.0363 
     41 CB         27.5712    2.3255   -4.9631 C.3       6 UNK        -0.1936 
     42 C          27.5586    2.5218   -7.4926 C.2       6 UNK         0.5081 
     43 O          28.3354    3.2526   -8.1047 O.2       6 UNK        -0.5248 
     44 N          26.2816    2.3339   -7.8533 N.am      7 UNK        -0.4718 
     45 CA         25.6699    2.9432   -9.0382 C.3       7 UNK         0.0273 
     46 CB         24.1585    2.6641   -9.0445 C.3       7 UNK        -0.1935 
     47 C          26.3137    2.4816  -10.3577 C.2       7 UNK         0.5018 
     48 O          26.4975    3.3037  -11.2564 O.2       7 UNK        -0.5186 
     49 N          26.6436    1.1860  -10.4489 N.am      8 UNK        -0.4240 
     50 CA         27.2670    0.5740  -11.6203 C.3       8 UNK         0.0235 
     51 CB         27.1426   -0.9565  -11.5395 C.3       8 UNK        -0.2000 
     52 C          28.7349    0.9802  -11.8219 C.2       8 UNK         0.4941 
     53 O          29.0994    1.3313  -12.9455 O.2       8 UNK        -0.5273 
     54 N          29.5580    0.8775  -10.7671 N.am      9 UNK        -0.4262 
     55 CA         31.0198    0.9157  -10.8923 C.3       9 UNK         0.0264 
     56 CB         31.5344   -0.5330  -11.0163 C.3       9 UNK        -0.1955 
     57 C          31.7440    1.6644   -9.7616 C.2       9 UNK         0.5031 
     58 O          32.9738    1.5977   -9.7203 O.2       9 UNK        -0.5390 
     59 N          31.0149    2.3434   -8.8599 N.am      10 UNK        -0.4204 
     60 CA         31.5363    3.0286   -7.6623 C.3       10 UNK         0.0237 
     61 CB         32.4030    4.2460   -8.0528 C.3       10 UNK        -0.1985 
     62 C          32.2460    2.0776   -6.6736 C.2       10 UNK         0.4970 
     63 O          33.1590    2.5019   -5.9630 O.2       10 UNK        -0.4914 
     64 N          31.8256    0.8060   -6.6627 N.am      11 UNK        -0.4285 
     65 CA         32.4171   -0.2724   -5.8647 C.3       11 UNK         0.1007 
     66 C          32.1462   -0.1040   -4.3447 C.2       11 UNK         0.5703 
     67 N          33.1561   -0.2926   -3.5061 N.am      11 UNK        -0.7361 
     68 O          31.0212    0.1584   -3.9233 O.2       11 UNK        -0.4986 
     69 C69        31.9425   -1.6568   -6.3841 C.3       12 UNK        -0.0947 
     70 S70        33.3209   -2.8196   -6.6743 S.3       12 UNK        -0.2240 
     71 C71        33.3819   -3.8064   -5.1362 C.3       12 UNK         0.0194 
     72 H72        30.2952    0.8613    3.4587 H         1 UNK         0.0906 
     73 H73        28.8989   -0.1460    3.8511 H         1 UNK         0.0906 
     74 H74        30.4462   -0.8969    3.4563 H         1 UNK         0.0906 
     75 H75        30.4240   -1.7840    1.3908 H         1 UNK         0.3140 
     76 H76        29.4927   -0.2861   -0.9078 H         1 UNK         0.1085 
     77 H77        30.2982   -2.2593   -2.2052 H         1 UNK         0.0836 
     78 H78        31.5073   -1.5536   -1.1932 H         1 UNK         0.0836 
     79 H79        30.2111   -5.9122   -1.0532 H         1 UNK         0.0731 
     80 H80        28.9894   -4.7008   -1.3544 H         1 UNK         0.0731 
     81 H81        32.4442   -4.0943   -2.6274 H         1 UNK         0.1312 
     82 H82        31.3596   -4.8455   -6.6967 H         1 UNK         0.1406 
     83 H83        28.5616   -5.6740   -3.5648 H         1 UNK         0.1631 
     84 H84        28.4567   -6.7195   -6.0561 H         1 UNK         0.0717 
     85 H85        29.2748   -5.7702   -7.2730 H         1 UNK         0.0717 
     86 H86        28.3406   -2.5367   -5.4209 H         1 UNK         0.0934 
     87 H87        29.2409   -3.0549   -6.8273 H         1 UNK         0.0934 
     88 H88        27.5248   -2.2978   -8.3610 H         1 UNK         0.0739 
     89 H89        25.7856   -2.1944   -6.0773 H         1 UNK         0.3093 
     90 H90        23.0809   -0.6068   -7.8005 H         1 UNK         0.0818 
     91 H91        21.9655   -2.7091   -7.1006 H         1 UNK         0.0819 
     92 H92        23.0325   -3.0166   -8.4598 H         1 UNK         0.0819 
     93 H93        23.5267   -3.4885   -6.8403 H         1 UNK         0.0819 
     94 H94        23.3235   -1.6510   -5.1477 H         1 UNK         0.3041 
     95 H95        24.4485    1.3781   -3.6226 H         1 UNK         0.0784 
     96 H96        21.9706    1.5809   -3.9328 H         1 UNK         0.0793 
     97 H97        21.7735   -0.1154   -3.5144 H         1 UNK         0.0793 
     98 H98        22.3833    1.0297   -2.3191 H         1 UNK         0.0793 
     99 H99        23.8546   -0.9822   -2.3163 H         1 UNK         0.3024 
    100 H100       25.5250   -2.0341   -1.2676 H         1 UNK         0.1171 
    101 H101       25.1441   -3.7922   -3.0485 H         1 UNK         0.0786 
    102 H102       26.4634   -4.2412   -1.9789 H         1 UNK         0.0786 
    103 H103       26.8100   -3.6057   -3.5837 H         1 UNK         0.0786 
    104 H104       28.0197   -1.2059   -2.5249 H         1 UNK         0.2977 
    105 H105       27.0883   -0.0357   -5.6371 H         1 UNK         0.3127 
    106 H106       29.1635    1.7824   -6.2793 H         1 UNK         0.0770 
    107 H107       26.4854    2.2735   -4.8823 H         1 UNK         0.0814 
    108 H108       27.8565    3.3747   -4.8773 H         1 UNK         0.0814 
    109 H109       27.9951    1.8019   -4.1059 H         1 UNK         0.0814 
    110 H110       25.6804    1.7521   -7.2748 H         1 UNK         0.2983 
    111 H111       25.8151    4.0232   -8.9655 H         1 UNK         0.0947 
    112 H112       23.6797    3.1195   -9.9124 H         1 UNK         0.0806 
    113 H113       23.6770    3.0735   -8.1563 H         1 UNK         0.0806 
    114 H114       23.9458    1.5950   -9.0760 H         1 UNK         0.0806 
    115 H115       26.3714    0.5600   -9.6952 H         1 UNK         0.3000 
    116 H116       26.7121    0.9042  -12.5014 H         1 UNK         0.0850 
    117 H117       27.5967   -1.4332  -12.4093 H         1 UNK         0.0810 
    118 H118       26.0982   -1.2674  -11.5092 H         1 UNK         0.0810 
    119 H119       27.6359   -1.3561  -10.6530 H         1 UNK         0.0810 
    120 H120       29.1900    0.5507   -9.8750 H         1 UNK         0.3040 
    121 H121       31.2998    1.4507  -11.8020 H         1 UNK         0.0766 
    122 H122       32.6149   -0.5625  -11.1627 H         1 UNK         0.0812 
    123 H123       31.0843   -1.0433  -11.8679 H         1 UNK         0.0812 
    124 H124       31.3092   -1.1137  -10.1207 H         1 UNK         0.0812 
    125 H125       30.0072    2.3944   -8.9733 H         1 UNK         0.3205 
    126 H126       30.6765    3.4205   -7.1211 H         1 UNK         0.0754 
    127 H127       32.6607    4.8405   -7.1755 H         1 UNK         0.0769 
    128 H128       31.8732    4.9034   -8.7422 H         1 UNK         0.0769 
    129 H129       33.3384    3.9461   -8.5259 H         1 UNK         0.0769 
    130 H130       31.0506    0.5462   -7.2568 H         1 UNK         0.2981 
    131 H131       33.4953   -0.1920   -6.0196 H         1 UNK         0.0541 
    132 H132       32.9986   -0.1854   -2.5176 H         1 UNK         0.3459 
    133 H133       34.0803   -0.5073   -3.8454 H         1 UNK         0.3459 
    134 H134       31.4426   -1.5564   -7.3492 H         1 UNK         0.0612 
    135 H135       31.1885   -2.0972   -5.7315 H         1 UNK         0.0612 
    136 H136       34.0979   -4.6179   -5.2700 H         1 UNK         0.0624 
    137 H137       33.7808   -3.1681   -4.3464 H         1 UNK         0.0624 
@<TRIPOS>BOND
     1    1    2 1    
     2    1   72 1    
     3    1   73 1    
     4    1   74 1    
     5    2    3 2    
     6    2    4 am   BACKBONE|DICT|INTERRES
     7    4    5 1    
     8    4   75 1    
     9    5    6 1    
    10    5   35 1    
    11    5   76 1    
    12    6    7 1    
    13    6   77 1    
    14    6   78 1    
    15    7    8 1    
    16    8    9 1    
    17    8   79 1    
    18    8   80 1    
    19    9   10 ar   
    20    9   14 ar   
    21   10   11 ar   
    22   10   81 1    
    23   11   12 ar   
    24   11   71 1    
    25   12   13 ar   
    26   12   82 1    
    27   13   14 ar   
    28   13   15 1    
    29   14   83 1    
    30   15   16 1    
    31   15   84 1    
    32   15   85 1    
    33   16   17 1    
    34   17   18 1    
    35   17   86 1    
    36   17   87 1    
    37   18   19 1    
    38   18   37 1    
    39   18   88 1    
    40   19   20 am   BACKBONE|DICT|INTERRES
    41   19   89 1    
    42   20   21 2    
    43   20   22 1    
    44   22   23 1    
    45   22   24 1    
    46   22   90 1    
    47   23   91 1    
    48   23   92 1    
    49   23   93 1    
    50   24   25 am   BACKBONE|DICT|INTERRES
    51   24   94 1    
    52   25   26 2    
    53   25   27 1    
    54   27   28 1    
    55   27   29 1    
    56   27   95 1    
    57   28   96 1    
    58   28   97 1    
    59   28   98 1    
    60   29   30 am   BACKBONE|DICT|INTERRES
    61   29   99 1    
    62   30   31 2    
    63   30   32 1    
    64   32   33 1    
    65   32   34 1    
    66   32  100 1    
    67   33  101 1    
    68   33  102 1    
    69   33  103 1    
    70   34   35 am   BACKBONE|DICT|INTERRES
    71   34  104 1    
    72   35   36 2    
    73   37   38 2    
    74   37   39 am   BACKBONE|DICT|INTERRES
    75   39   40 1    
    76   39  105 1    
    77   40   41 1    
    78   40   42 1    
    79   40  106 1    
    80   41  107 1    
    81   41  108 1    
    82   41  109 1    
    83   42   43 2    
    84   42   44 am   BACKBONE|DICT|INTERRES
    85   44   45 1    
    86   44  110 1    
    87   45   46 1    
    88   45   47 1    
    89   45  111 1    
    90   46  112 1    
    91   46  113 1    
    92   46  114 1    
    93   47   48 2    
    94   47   49 am   BACKBONE|DICT|INTERRES
    95   49   50 1    
    96   49  115 1    
    97   50   51 1    
    98   50   52 1    
    99   50  116 1    
   100   51  117 1    
   101   51  118 1    
   102   51  119 1    
   103   52   53 2    
   104   52   54 am   BACKBONE|DICT|INTERRES
   105   54   55 1    
   106   54  120 1    
   107   55   56 1    
   108   55   57 1    
   109   55  121 1    
   110   56  122 1    
   111   56  123 1    
   112   56  124 1    
   113   57   58 2    
   114   57   59 am   BACKBONE|DICT|INTERRES
   115   59   60 1    
   116   59  125 1    
   117   60   61 1    
   118   60   62 1    
   119   60  126 1    
   120   61  127 1    
   121   61  128 1    
   122   61  129 1    
   123   62   63 2    
   124   62   64 am   BACKBONE|DICT|INTERRES
   125   64   65 1    
   126   64  130 1    
   127   65   66 1    
   128   65   69 1    
   129   65  131 1    
   130   66   67 am   BACKBONE|DICT|INTERRES
   131   66   68 2    
   132   67  132 1    
   133   67  133 1    
   134   69   70 1    
   135   69  134 1    
   136   69  135 1    
   137   70   71 1    
   138   71  136 1    
   139   71  137 1    
@<TRIPOS>SUBSTRUCTURE
     1 UNK         1 GROUP             0       ****    0 ROOT    
