@<TRIPOS>MOLECULE
3R137
137   139    1
SMALL
USER_CHARGES


@<TRIPOS>ATOM
      1 CA         27.4150   -6.7238   -2.6374 C.3       0 UNK        -0.2020 
      2 C          26.6925   -5.7737   -1.6943 C.2       0 UNK         0.4855 
      3 O          25.6319   -6.1184   -1.1719 O.2       0 UNK        -0.5197 
      4 N          27.2654   -4.5865   -1.4607 N.am      1 UNK        -0.4892 
      5 CA         26.6839   -3.5175   -0.6448 C.3       1 UNK         0.0835 
      6 C6         27.7536   -2.4804   -0.2049 C.3       12 UNK        -0.0855 
      7 S7         28.6761   -1.7135   -1.5842 S.3       12 UNK        -0.2931 
      8 C8         30.2625   -2.6156   -1.5254 C.3       12 UNK         0.0378 
      9 C9         30.8453   -2.7516   -2.9232 C.ar      12 UNK        -0.0802 
     10 C10        32.0211   -2.0897   -3.2888 C.ar      12 UNK        -0.0944 
     11 C11        32.5188   -2.1983   -4.5933 C.ar      12 UNK        -0.0787 
     12 C12        31.8007   -2.9444   -5.5358 C.ar      12 UNK        -0.0862 
     13 C13        30.6202   -3.6110   -5.1868 C.ar      12 UNK        -0.0733 
     14 C14        30.1851   -3.5463   -3.8615 C.ar      12 UNK        -0.0832 
     15 C15        29.8660   -4.3891   -6.2703 C.3       12 UNK         0.0240 
     16 S16        28.1862   -5.0153   -5.8658 S.3       12 UNK        -0.2522 
     17 C17        27.1881   -3.5819   -5.3092 C.3       12 UNK        -0.0967 
     18 CA         26.8337   -2.5335   -6.3925 C.3       5 UNK         0.0660 
     19 N          25.6073   -1.8077   -6.0428 N.am      5 UNK        -0.4015 
     20 C          24.9913   -0.9112   -6.8283 C.2       4 UNK         0.4946 
     21 O          25.3476   -0.6372   -7.9739 O.2       4 UNK        -0.5353 
     22 CA         23.7975   -0.1576   -6.2207 C.3       4 UNK         0.0277 
     23 CB         22.5081   -0.9812   -6.3652 C.3       4 UNK        -0.1981 
     24 N          23.9832    0.2145   -4.8158 N.am      4 UNK        -0.4209 
     25 C          24.9670    0.9772   -4.3224 C.2       3 UNK         0.4942 
     26 O          25.8736    1.4405   -5.0120 O.2       3 UNK        -0.5208 
     27 CA         24.9640    1.2695   -2.8091 C.3       3 UNK         0.0250 
     28 CB         24.1430    2.5356   -2.4988 C.3       3 UNK        -0.1990 
     29 N          24.5611    0.1426   -1.9521 N.am      3 UNK        -0.4232 
     30 C          23.3792   -0.4890   -1.8780 C.2       2 UNK         0.4993 
     31 O          22.3955   -0.1696   -2.5478 O.2       2 UNK        -0.5286 
     32 CA         23.2776   -1.6916   -0.9165 C.3       2 UNK         0.0209 
     33 CB         22.3176   -2.7768   -1.4516 C.3       2 UNK        -0.1931 
     34 N          24.5650   -2.2969   -0.5355 N.am      2 UNK        -0.4546 
     35 C          25.4743   -2.8598   -1.3476 C.2       1 UNK         0.5154 
     36 O          25.3972   -2.8509   -2.5806 O.2       1 UNK        -0.5181 
     37 C          27.9949   -1.5491   -6.6236 C.2       5 UNK         0.5014 
     38 O          28.6083   -1.5665   -7.6912 O.2       5 UNK        -0.5248 
     39 N          28.2384   -0.6817   -5.6300 N.am      6 UNK        -0.4434 
     40 CA         29.2758    0.3472   -5.6552 C.3       6 UNK         0.0363 
     41 CB         29.3319    1.0616   -4.2954 C.3       6 UNK        -0.1936 
     42 C          29.0976    1.3527   -6.8026 C.2       6 UNK         0.5081 
     43 O          30.0807    1.6982   -7.4576 O.2       6 UNK        -0.5248 
     44 N          27.8494    1.7719   -7.0485 N.am      7 UNK        -0.4718 
     45 CA         27.4646    2.6390   -8.1619 C.3       7 UNK         0.0273 
     46 CB         25.9929    3.0550   -8.0097 C.3       7 UNK        -0.1935 
     47 C          27.7144    1.9914   -9.5337 C.2       7 UNK         0.5018 
     48 O          28.2993    2.6395  -10.4019 O.2       7 UNK        -0.5186 
     49 N          27.2992    0.7260   -9.6982 N.am      8 UNK        -0.4240 
     50 CA         27.4981   -0.0574  -10.9219 C.3       8 UNK         0.0235 
     51 CB         26.6887   -1.3617  -10.8433 C.3       8 UNK        -0.2000 
     52 C          28.9778   -0.3571  -11.2125 C.2       8 UNK         0.4941 
     53 O          29.3962   -0.2696  -12.3675 O.2       8 UNK        -0.5273 
     54 N          29.7437   -0.6886  -10.1646 N.am      9 UNK        -0.4262 
     55 CA         31.1811   -0.9613  -10.2395 C.3       9 UNK         0.0264 
     56 CB         31.6072   -1.7191   -8.9727 C.3       9 UNK        -0.1955 
     57 C          32.0511    0.2964  -10.4147 C.2       9 UNK         0.5031 
     58 O          33.2205    0.1552  -10.7755 O.2       9 UNK        -0.5390 
     59 N          31.4909    1.4815  -10.1244 N.am      10 UNK        -0.4204 
     60 CA         32.1679    2.7801  -10.0089 C.3       10 UNK         0.0237 
     61 CB         32.7240    3.2516  -11.3696 C.3       10 UNK        -0.1985 
     62 C          33.2223    2.7629   -8.8835 C.2       10 UNK         0.4970 
     63 O          34.3610    3.1909   -9.0816 O.2       10 UNK        -0.4914 
     64 N          32.8106    2.2327   -7.7260 N.am      11 UNK        -0.4285 
     65 CA         33.6265    2.0479   -6.5188 C.3       11 UNK         0.1007 
     66 C          34.0060    3.3724   -5.7920 C.2       11 UNK         0.5703 
     67 N          33.2852    4.4688   -6.0000 N.am      11 UNK        -0.7361 
     68 O          34.9792    3.4128   -5.0434 O.2       11 UNK        -0.4986 
     69 C69        32.9292    1.0390   -5.5677 C.3       12 UNK        -0.0947 
     70 S70        34.0606    0.1602   -4.4439 S.3       12 UNK        -0.2240 
     71 C71        33.8575   -1.5709   -4.9833 C.3       12 UNK         0.0194 
     72 H72        27.5348   -7.7004   -2.1691 H         1 UNK         0.0906 
     73 H73        26.8372   -6.8533   -3.5522 H         1 UNK         0.0906 
     74 H74        28.4047   -6.3583   -2.9097 H         1 UNK         0.0906 
     75 H75        28.1178   -4.3366   -1.9348 H         1 UNK         0.3140 
     76 H76        26.2992   -3.9884    0.2632 H         1 UNK         0.1085 
     77 H77        28.4607   -2.9555    0.4771 H         1 UNK         0.0836 
     78 H78        27.2942   -1.6819    0.3806 H         1 UNK         0.0836 
     79 H79        30.9496   -2.0899   -0.8606 H         1 UNK         0.0731 
     80 H80        30.1225   -3.6117   -1.1035 H         1 UNK         0.0731 
     81 H81        32.5560   -1.5004   -2.5567 H         1 UNK         0.1312 
     82 H82        32.1744   -3.0261   -6.5465 H         1 UNK         0.1406 
     83 H83        29.3106   -4.0922   -3.5511 H         1 UNK         0.1631 
     84 H84        30.4757   -5.2515   -6.5424 H         1 UNK         0.0717 
     85 H85        29.7988   -3.7844   -7.1731 H         1 UNK         0.0717 
     86 H86        27.6136   -3.1074   -4.4266 H         1 UNK         0.0934 
     87 H87        26.2621   -4.0291   -4.9431 H         1 UNK         0.0934 
     88 H88        26.6409   -3.0531   -7.3335 H         1 UNK         0.0739 
     89 H89        25.2436   -1.9581   -5.1114 H         1 UNK         0.3093 
     90 H90        23.6754    0.7684   -6.7857 H         1 UNK         0.0818 
     91 H91        21.6373   -0.4147   -6.0346 H         1 UNK         0.0819 
     92 H92        22.3364   -1.2591   -7.4062 H         1 UNK         0.0819 
     93 H93        22.5485   -1.9024   -5.7824 H         1 UNK         0.0819 
     94 H94        23.2650   -0.0789   -4.1563 H         1 UNK         0.3041 
     95 H95        26.0002    1.4808   -2.5396 H         1 UNK         0.0784 
     96 H96        24.5146    3.3883   -3.0688 H         1 UNK         0.0793 
     97 H97        23.0895    2.4130   -2.7519 H         1 UNK         0.0793 
     98 H98        24.2058    2.7999   -1.4432 H         1 UNK         0.0793 
     99 H99        25.3032   -0.2375   -1.3817 H         1 UNK         0.3024 
    100 H100       22.8427   -1.2930    0.0017 H         1 UNK         0.1171 
    101 H101       22.2322   -3.6103   -0.7544 H         1 UNK         0.0786 
    102 H102       22.6525   -3.1750   -2.4101 H         1 UNK         0.0786 
    103 H103       21.3129   -2.3784   -1.5986 H         1 UNK         0.0786 
    104 H104       24.7397   -2.3270    0.4603 H         1 UNK         0.2977 
    105 H105       27.6571   -0.7111   -4.8061 H         1 UNK         0.3127 
    106 H106       30.2245   -0.1664   -5.8123 H         1 UNK         0.0770 
    107 H107       28.3546    1.4357   -3.9911 H         1 UNK         0.0814 
    108 H108       30.0049    1.9186   -4.3225 H         1 UNK         0.0814 
    109 H109       29.6942    0.3912   -3.5161 H         1 UNK         0.0814 
    110 H110       27.1084    1.4831   -6.4125 H         1 UNK         0.2983 
    111 H111       28.0802    3.5394   -8.1053 H         1 UNK         0.0947 
    112 H112       25.6924    3.7294   -8.8125 H         1 UNK         0.0806 
    113 H113       25.8242    3.5757   -7.0668 H         1 UNK         0.0806 
    114 H114       25.3248    2.1939   -8.0383 H         1 UNK         0.0806 
    115 H115       26.7988    0.2668   -8.9408 H         1 UNK         0.3000 
    116 H116       27.1122    0.5307  -11.7573 H         1 UNK         0.0850 
    117 H117       26.8182   -1.9592  -11.7466 H         1 UNK         0.0810 
    118 H118       25.6227   -1.1595  -10.7378 H         1 UNK         0.0810 
    119 H119       26.9962   -1.9762   -9.9960 H         1 UNK         0.0810 
    120 H120       29.3019   -0.8110   -9.2540 H         1 UNK         0.3040 
    121 H121       31.3644   -1.6064  -11.1014 H         1 UNK         0.0766 
    122 H122       32.6741   -1.9459   -8.9871 H         1 UNK         0.0812 
    123 H123       31.4069   -1.1363   -8.0725 H         1 UNK         0.0812 
    124 H124       31.0758   -2.6662   -8.8860 H         1 UNK         0.0812 
    125 H125       30.5300    1.4692   -9.8053 H         1 UNK         0.3205 
    126 H126       31.4023    3.4941   -9.7012 H         1 UNK         0.0754 
    127 H127       33.1141    4.2676  -11.2985 H         1 UNK         0.0769 
    128 H128       31.9468    3.2552  -12.1338 H         1 UNK         0.0769 
    129 H129       33.5378    2.6169  -11.7214 H         1 UNK         0.0769 
    130 H130       31.8325    1.9566   -7.6473 H         1 UNK         0.2981 
    131 H131       34.5641    1.5996   -6.8531 H         1 UNK         0.0541 
    132 H132       32.4877    4.4467   -6.6145 H         1 UNK         0.3459 
    133 H133       33.5422    5.3245   -5.5340 H         1 UNK         0.3459 
    134 H134       32.4089    0.2847   -6.1578 H         1 UNK         0.0612 
    135 H135       32.1628    1.5334   -4.9719 H         1 UNK         0.0612 
    136 H136       34.0124   -1.6200   -6.0624 H         1 UNK         0.0624 
    137 H137       34.6542   -2.1643   -4.5334 H         1 UNK         0.0624 
@<TRIPOS>BOND
     1    1    2 1    
     2    1   72 1    
     3    1   73 1    
     4    1   74 1    
     5    2    3 2    
     6    2    4 am   BACKBONE|DICT|INTERRES
     7    4    5 1    
     8    4   75 1    
     9    5    6 1    
    10    5   35 1    
    11    5   76 1    
    12    6    7 1    
    13    6   77 1    
    14    6   78 1    
    15    7    8 1    
    16    8    9 1    
    17    8   79 1    
    18    8   80 1    
    19    9   10 ar   
    20    9   14 ar   
    21   10   11 ar   
    22   10   81 1    
    23   11   12 ar   
    24   11   71 1    
    25   12   13 ar   
    26   12   82 1    
    27   13   14 ar   
    28   13   15 1    
    29   14   83 1    
    30   15   16 1    
    31   15   84 1    
    32   15   85 1    
    33   16   17 1    
    34   17   18 1    
    35   17   86 1    
    36   17   87 1    
    37   18   19 1    
    38   18   37 1    
    39   18   88 1    
    40   19   20 am   BACKBONE|DICT|INTERRES
    41   19   89 1    
    42   20   21 2    
    43   20   22 1    
    44   22   23 1    
    45   22   24 1    
    46   22   90 1    
    47   23   91 1    
    48   23   92 1    
    49   23   93 1    
    50   24   25 am   BACKBONE|DICT|INTERRES
    51   24   94 1    
    52   25   26 2    
    53   25   27 1    
    54   27   28 1    
    55   27   29 1    
    56   27   95 1    
    57   28   96 1    
    58   28   97 1    
    59   28   98 1    
    60   29   30 am   BACKBONE|DICT|INTERRES
    61   29   99 1    
    62   30   31 2    
    63   30   32 1    
    64   32   33 1    
    65   32   34 1    
    66   32  100 1    
    67   33  101 1    
    68   33  102 1    
    69   33  103 1    
    70   34   35 am   BACKBONE|DICT|INTERRES
    71   34  104 1    
    72   35   36 2    
    73   37   38 2    
    74   37   39 am   BACKBONE|DICT|INTERRES
    75   39   40 1    
    76   39  105 1    
    77   40   41 1    
    78   40   42 1    
    79   40  106 1    
    80   41  107 1    
    81   41  108 1    
    82   41  109 1    
    83   42   43 2    
    84   42   44 am   BACKBONE|DICT|INTERRES
    85   44   45 1    
    86   44  110 1    
    87   45   46 1    
    88   45   47 1    
    89   45  111 1    
    90   46  112 1    
    91   46  113 1    
    92   46  114 1    
    93   47   48 2    
    94   47   49 am   BACKBONE|DICT|INTERRES
    95   49   50 1    
    96   49  115 1    
    97   50   51 1    
    98   50   52 1    
    99   50  116 1    
   100   51  117 1    
   101   51  118 1    
   102   51  119 1    
   103   52   53 2    
   104   52   54 am   BACKBONE|DICT|INTERRES
   105   54   55 1    
   106   54  120 1    
   107   55   56 1    
   108   55   57 1    
   109   55  121 1    
   110   56  122 1    
   111   56  123 1    
   112   56  124 1    
   113   57   58 2    
   114   57   59 am   BACKBONE|DICT|INTERRES
   115   59   60 1    
   116   59  125 1    
   117   60   61 1    
   118   60   62 1    
   119   60  126 1    
   120   61  127 1    
   121   61  128 1    
   122   61  129 1    
   123   62   63 2    
   124   62   64 am   BACKBONE|DICT|INTERRES
   125   64   65 1    
   126   64  130 1    
   127   65   66 1    
   128   65   69 1    
   129   65  131 1    
   130   66   67 am   BACKBONE|DICT|INTERRES
   131   66   68 2    
   132   67  132 1    
   133   67  133 1    
   134   69   70 1    
   135   69  134 1    
   136   69  135 1    
   137   70   71 1    
   138   71  136 1    
   139   71  137 1    
@<TRIPOS>SUBSTRUCTURE
     1 UNK         1 GROUP             0       ****    0 ROOT    
