@<TRIPOS>MOLECULE
3R137
137   139    1
SMALL
USER_CHARGES


@<TRIPOS>ATOM
      1 CA         25.5260   -2.0292    0.6167 C.3       0 UNK        -0.2020 
      2 C          26.6086   -1.3501   -0.2076 C.2       0 UNK         0.4855 
      3 O          26.6901   -0.1214   -0.2162 O.2       0 UNK        -0.5197 
      4 N          27.4323   -2.1397   -0.9109 N.am      1 UNK        -0.4892 
      5 CA         28.5118   -1.6885   -1.7993 C.3       1 UNK         0.0835 
      6 C6         29.2816   -2.9011   -2.3843 C.3       12 UNK        -0.0855 
      7 S7         31.0156   -2.5090   -2.7769 S.3       12 UNK        -0.2931 
      8 C8         31.4695   -3.9301   -3.8219 C.3       12 UNK         0.0378 
      9 C9         31.4273   -3.5915   -5.3067 C.ar      12 UNK        -0.0802 
     10 C10        32.6016   -3.2180   -5.9684 C.ar      12 UNK        -0.0944 
     11 C11        32.5977   -2.9481   -7.3443 C.ar      12 UNK        -0.0787 
     12 C12        31.3941   -3.0531   -8.0474 C.ar      12 UNK        -0.0862 
     13 C13        30.2115   -3.4213   -7.4010 C.ar      12 UNK        -0.0733 
     14 C14        30.2332   -3.6897   -6.0283 C.ar      12 UNK        -0.0832 
     15 C15        28.9265   -3.5648   -8.2057 C.3       12 UNK         0.0240 
     16 S16        28.1697   -1.9544   -8.5945 S.3       12 UNK        -0.2522 
     17 C17        27.3314   -1.5699   -7.0225 C.3       12 UNK        -0.0967 
     18 CA         25.8562   -2.0445   -6.9958 C.3       5 UNK         0.0660 
     19 N          25.3335   -2.0155   -5.6319 N.am      5 UNK        -0.4015 
     20 C          24.1512   -2.4960   -5.2251 C.2       4 UNK         0.4946 
     21 O          23.3425   -3.0536   -5.9685 O.2       4 UNK        -0.5353 
     22 CA         23.8207   -2.3495   -3.7318 C.3       4 UNK         0.0277 
     23 CB         24.4815   -3.4796   -2.9241 C.3       4 UNK        -0.1981 
     24 N          24.2601   -1.0563   -3.2017 N.am      4 UNK        -0.4209 
     25 C          23.4611    0.0040   -3.0118 C.2       3 UNK         0.4942 
     26 O          22.2535   -0.0006   -3.2539 O.2       3 UNK        -0.5208 
     27 CA         24.0935    1.2865   -2.4369 C.3       3 UNK         0.0250 
     28 CB         23.7270    1.4527   -0.9528 C.3       3 UNK        -0.1990 
     29 N          25.5513    1.3215   -2.5849 N.am      3 UNK        -0.4232 
     30 C          26.1737    1.6918   -3.7144 C.2       2 UNK         0.4993 
     31 O          25.5820    2.1337   -4.6978 O.2       2 UNK        -0.5286 
     32 CA         27.7052    1.5326   -3.7802 C.3       2 UNK         0.0209 
     33 CB         28.3943    2.8849   -3.5348 C.3       2 UNK        -0.1931 
     34 N          28.2526    0.5230   -2.8647 N.am      2 UNK        -0.4546 
     35 C          27.9456   -0.7808   -2.9095 C.2       1 UNK         0.5154 
     36 O          27.1577   -1.2624   -3.7250 O.2       1 UNK        -0.5181 
     37 C          24.9776   -1.2091   -7.9468 C.2       5 UNK         0.5014 
     38 O          24.7433   -0.0302   -7.6761 O.2       5 UNK        -0.5248 
     39 N          24.5616   -1.8102   -9.0707 N.am      6 UNK        -0.4434 
     40 CA         23.7797   -1.1537  -10.1259 C.3       6 UNK         0.0363 
     41 CB         23.3035   -2.2072  -11.1387 C.3       6 UNK        -0.1936 
     42 C          24.5444   -0.0249  -10.8422 C.2       6 UNK         0.5081 
     43 O          23.9218    0.9321  -11.3019 O.2       6 UNK        -0.5248 
     44 N          25.8780   -0.1437  -10.9002 N.am      7 UNK        -0.4718 
     45 CA         26.7870    0.8812  -11.4202 C.3       7 UNK         0.0273 
     46 CB         28.0598    0.1912  -11.9421 C.3       7 UNK        -0.1935 
     47 C          27.1479    1.9548  -10.3743 C.2       7 UNK         0.5018 
     48 O          27.8270    2.9188  -10.7287 O.2       7 UNK        -0.5186 
     49 N          26.7264    1.7600   -9.1131 N.am      8 UNK        -0.4240 
     50 CA         27.0306    2.5747   -7.9289 C.3       8 UNK         0.0235 
     51 CB         26.3755    3.9678   -8.0339 C.3       8 UNK        -0.2000 
     52 C          28.5344    2.6432   -7.5884 C.2       8 UNK         0.4941 
     53 O          28.9844    3.6233   -6.9920 O.2       8 UNK        -0.5273 
     54 N          29.2859    1.6043   -7.9732 N.am      9 UNK        -0.4262 
     55 CA         30.7151    1.4619   -7.7101 C.3       9 UNK         0.0264 
     56 CB         31.3348    0.6168   -8.8347 C.3       9 UNK        -0.1955 
     57 C          30.9535    0.8053   -6.3426 C.2       9 UNK         0.5031 
     58 O          30.0852    0.0866   -5.8457 O.2       9 UNK        -0.5390 
     59 N          32.1424    1.0430   -5.7795 N.am      10 UNK        -0.4204 
     60 CA         32.6039    0.4503   -4.5272 C.3       10 UNK         0.0237 
     61 CB         32.0884    1.2541   -3.3181 C.3       10 UNK        -0.1985 
     62 C          34.1293    0.3253   -4.5705 C.2       10 UNK         0.4970 
     63 O          34.8344    1.0298   -3.8469 O.2       10 UNK        -0.4914 
     64 N          34.6077   -0.5508   -5.4597 N.am      11 UNK        -0.4285 
     65 CA         36.0308   -0.8638   -5.6631 C.3       11 UNK         0.1007 
     66 C          36.7056   -1.6933   -4.5281 C.2       11 UNK         0.5703 
     67 N          35.9748   -2.1966   -3.5396 N.am      11 UNK        -0.7361 
     68 O          37.9216   -1.8708   -4.5392 O.2       11 UNK        -0.4986 
     69 C69        36.2756   -1.4702   -7.0711 C.3       12 UNK        -0.0947 
     70 S70        35.4317   -3.0660   -7.3615 S.3       12 UNK        -0.2240 
     71 C71        33.8539   -2.5338   -8.1141 C.3       12 UNK         0.0194 
     72 H72        25.5695   -1.6840    1.6494 H         1 UNK         0.0906 
     73 H73        24.5418   -1.7862    0.2172 H         1 UNK         0.0906 
     74 H74        25.6335   -3.1137    0.6181 H         1 UNK         0.0906 
     75 H75        27.2996   -3.1399   -0.8678 H         1 UNK         0.3140 
     76 H76        29.1966   -1.1028   -1.1819 H         1 UNK         0.1085 
     77 H77        29.3135   -3.7129   -1.6554 H         1 UNK         0.0836 
     78 H78        28.7792   -3.3136   -3.2614 H         1 UNK         0.0836 
     79 H79        32.4743   -4.2528   -3.5447 H         1 UNK         0.0731 
     80 H80        30.8187   -4.7800   -3.6108 H         1 UNK         0.0731 
     81 H81        33.5187   -3.1589   -5.4008 H         1 UNK         0.1312 
     82 H82        31.3740   -2.8503   -9.1097 H         1 UNK         0.1406 
     83 H83        29.3244   -3.9863   -5.5239 H         1 UNK         0.1631 
     84 H84        28.2059   -4.1931   -7.6800 H         1 UNK         0.0717 
     85 H85        29.1470   -4.0792   -9.1421 H         1 UNK         0.0717 
     86 H86        27.8950   -2.0329   -6.2118 H         1 UNK         0.0934 
     87 H87        27.4012   -0.4970   -6.8344 H         1 UNK         0.0934 
     88 H88        25.8252   -3.0885   -7.3146 H         1 UNK         0.0739 
     89 H89        25.9606   -1.6194   -4.9331 H         1 UNK         0.3093 
     90 H90        22.7387   -2.4504   -3.6214 H         1 UNK         0.0818 
     91 H91        25.5697   -3.4429   -2.9859 H         1 UNK         0.0819 
     92 H92        24.2025   -3.4283   -1.8719 H         1 UNK         0.0819 
     93 H93        24.1673   -4.4568   -3.2934 H         1 UNK         0.0819 
     94 H94        25.2551   -0.9496   -3.0441 H         1 UNK         0.3041 
     95 H95        23.6632    2.1311   -2.9798 H         1 UNK         0.0784 
     96 H96        22.6449    1.4978   -0.8219 H         1 UNK         0.0793 
     97 H97        24.0917    0.6233   -0.3475 H         1 UNK         0.0793 
     98 H98        24.1406    2.3742   -0.5427 H         1 UNK         0.0793 
     99 H99        26.1004    0.9694   -1.8052 H         1 UNK         0.3024 
    100 H100       27.9395    1.2101   -4.7968 H         1 UNK         0.1171 
    101 H101       27.9749    3.6584   -4.1803 H         1 UNK         0.0786 
    102 H102       29.4590    2.8361   -3.7593 H         1 UNK         0.0786 
    103 H103       28.2764    3.2198   -2.5038 H         1 UNK         0.0786 
    104 H104       28.8592    0.8576   -2.1304 H         1 UNK         0.2977 
    105 H105       24.7990   -2.7806   -9.2217 H         1 UNK         0.3127 
    106 H106       22.9001   -0.7059   -9.6583 H         1 UNK         0.0770 
    107 H107       24.1407   -2.7071  -11.6275 H         1 UNK         0.0814 
    108 H108       22.6969   -1.7486  -11.9212 H         1 UNK         0.0814 
    109 H109       22.6879   -2.9692  -10.6603 H         1 UNK         0.0814 
    110 H110       26.3045   -0.9690  -10.5021 H         1 UNK         0.2983 
    111 H111       26.3085    1.3933  -12.2581 H         1 UNK         0.0947 
    112 H112       28.7395    0.9149  -12.3942 H         1 UNK         0.0806 
    113 H113       27.8252   -0.5496  -12.7067 H         1 UNK         0.0806 
    114 H114       28.6070   -0.3110  -11.1437 H         1 UNK         0.0806 
    115 H115       26.1257    0.9636   -8.9322 H         1 UNK         0.3000 
    116 H116       26.5626    2.0564   -7.0924 H         1 UNK         0.0850 
    117 H117       26.4672    4.5129   -7.0936 H         1 UNK         0.0810 
    118 H118       25.3115    3.8886   -8.2565 H         1 UNK         0.0810 
    119 H119       26.8392    4.5765   -8.8106 H         1 UNK         0.0810 
    120 H120       28.8310    0.8096   -8.3976 H         1 UNK         0.3040 
    121 H121       31.1837    2.4485   -7.7153 H         1 UNK         0.0766 
    122 H122       31.1813    1.0815   -9.8089 H         1 UNK         0.0812 
    123 H123       30.9002   -0.3820   -8.8706 H         1 UNK         0.0812 
    124 H124       32.4104    0.5036   -8.6971 H         1 UNK         0.0812 
    125 H125       32.8088    1.6341   -6.2584 H         1 UNK         0.3205 
    126 H126       32.2120   -0.5647   -4.4540 H         1 UNK         0.0754 
    127 H127       32.4964    0.8632   -2.3851 H         1 UNK         0.0769 
    128 H128       31.0049    1.1857   -3.2435 H         1 UNK         0.0769 
    129 H129       32.3605    2.3079   -3.3844 H         1 UNK         0.0769 
    130 H130       33.9574   -1.0885   -6.0133 H         1 UNK         0.2981 
    131 H131       36.5579    0.0922   -5.6509 H         1 UNK         0.0541 
    132 H132       34.9815   -2.0423   -3.5023 H         1 UNK         0.3459 
    133 H133       36.4314   -2.7246   -2.8128 H         1 UNK         0.3459 
    134 H134       35.9770   -0.7566   -7.8401 H         1 UNK         0.0612 
    135 H135       37.3440   -1.6253   -7.2319 H         1 UNK         0.0612 
    136 H136       33.8178   -2.9559   -9.1196 H         1 UNK         0.0624 
    137 H137       33.8377   -1.4517   -8.2415 H         1 UNK         0.0624 
@<TRIPOS>BOND
     1    1    2 1    
     2    1   72 1    
     3    1   73 1    
     4    1   74 1    
     5    2    3 2    
     6    2    4 am   BACKBONE|DICT|INTERRES
     7    4    5 1    
     8    4   75 1    
     9    5    6 1    
    10    5   35 1    
    11    5   76 1    
    12    6    7 1    
    13    6   77 1    
    14    6   78 1    
    15    7    8 1    
    16    8    9 1    
    17    8   79 1    
    18    8   80 1    
    19    9   10 ar   
    20    9   14 ar   
    21   10   11 ar   
    22   10   81 1    
    23   11   12 ar   
    24   11   71 1    
    25   12   13 ar   
    26   12   82 1    
    27   13   14 ar   
    28   13   15 1    
    29   14   83 1    
    30   15   16 1    
    31   15   84 1    
    32   15   85 1    
    33   16   17 1    
    34   17   18 1    
    35   17   86 1    
    36   17   87 1    
    37   18   19 1    
    38   18   37 1    
    39   18   88 1    
    40   19   20 am   BACKBONE|DICT|INTERRES
    41   19   89 1    
    42   20   21 2    
    43   20   22 1    
    44   22   23 1    
    45   22   24 1    
    46   22   90 1    
    47   23   91 1    
    48   23   92 1    
    49   23   93 1    
    50   24   25 am   BACKBONE|DICT|INTERRES
    51   24   94 1    
    52   25   26 2    
    53   25   27 1    
    54   27   28 1    
    55   27   29 1    
    56   27   95 1    
    57   28   96 1    
    58   28   97 1    
    59   28   98 1    
    60   29   30 am   BACKBONE|DICT|INTERRES
    61   29   99 1    
    62   30   31 2    
    63   30   32 1    
    64   32   33 1    
    65   32   34 1    
    66   32  100 1    
    67   33  101 1    
    68   33  102 1    
    69   33  103 1    
    70   34   35 am   BACKBONE|DICT|INTERRES
    71   34  104 1    
    72   35   36 2    
    73   37   38 2    
    74   37   39 am   BACKBONE|DICT|INTERRES
    75   39   40 1    
    76   39  105 1    
    77   40   41 1    
    78   40   42 1    
    79   40  106 1    
    80   41  107 1    
    81   41  108 1    
    82   41  109 1    
    83   42   43 2    
    84   42   44 am   BACKBONE|DICT|INTERRES
    85   44   45 1    
    86   44  110 1    
    87   45   46 1    
    88   45   47 1    
    89   45  111 1    
    90   46  112 1    
    91   46  113 1    
    92   46  114 1    
    93   47   48 2    
    94   47   49 am   BACKBONE|DICT|INTERRES
    95   49   50 1    
    96   49  115 1    
    97   50   51 1    
    98   50   52 1    
    99   50  116 1    
   100   51  117 1    
   101   51  118 1    
   102   51  119 1    
   103   52   53 2    
   104   52   54 am   BACKBONE|DICT|INTERRES
   105   54   55 1    
   106   54  120 1    
   107   55   56 1    
   108   55   57 1    
   109   55  121 1    
   110   56  122 1    
   111   56  123 1    
   112   56  124 1    
   113   57   58 2    
   114   57   59 am   BACKBONE|DICT|INTERRES
   115   59   60 1    
   116   59  125 1    
   117   60   61 1    
   118   60   62 1    
   119   60  126 1    
   120   61  127 1    
   121   61  128 1    
   122   61  129 1    
   123   62   63 2    
   124   62   64 am   BACKBONE|DICT|INTERRES
   125   64   65 1    
   126   64  130 1    
   127   65   66 1    
   128   65   69 1    
   129   65  131 1    
   130   66   67 am   BACKBONE|DICT|INTERRES
   131   66   68 2    
   132   67  132 1    
   133   67  133 1    
   134   69   70 1    
   135   69  134 1    
   136   69  135 1    
   137   70   71 1    
   138   71  136 1    
   139   71  137 1    
@<TRIPOS>SUBSTRUCTURE
     1 UNK         1 GROUP             0       ****    0 ROOT    
