@<TRIPOS>MOLECULE
3R137
137   139    1
SMALL
USER_CHARGES


@<TRIPOS>ATOM
      1 CA         27.5412   -6.3542    0.7045 C.3       0 UNK        -0.2020 
      2 C          27.5669   -5.0171   -0.0197 C.2       0 UNK         0.4855 
      3 O          27.3830   -4.9831   -1.2356 O.2       0 UNK        -0.5197 
      4 N          27.7893   -3.9230    0.7219 N.am      1 UNK        -0.4892 
      5 CA         27.8853   -2.5185    0.2852 C.3       1 UNK         0.0835 
      6 C6         29.0044   -2.2367   -0.7505 C.3       12 UNK        -0.0855 
      7 S7         30.6759   -2.6725   -0.1521 S.3       12 UNK        -0.2931 
      8 C8         31.1070   -4.1241   -1.1709 C.3       12 UNK         0.0378 
      9 C9         31.0386   -3.8252   -2.6624 C.ar      12 UNK        -0.0802 
     10 C10        31.9739   -2.9756   -3.2607 C.ar      12 UNK        -0.0944 
     11 C11        31.8792   -2.6617   -4.6201 C.ar      12 UNK        -0.0787 
     12 C12        30.8379   -3.2035   -5.3805 C.ar      12 UNK        -0.0862 
     13 C13        29.9046   -4.0651   -4.7953 C.ar      12 UNK        -0.0733 
     14 C14        30.0201   -4.3832   -3.4405 C.ar      12 UNK        -0.0832 
     15 C15        28.7725   -4.6550   -5.6226 C.3       12 UNK         0.0240 
     16 S16        27.1441   -4.0508   -5.0637 S.3       12 UNK        -0.2522 
     17 C17        26.2698   -3.8732   -6.6586 C.3       12 UNK        -0.0967 
     18 CA         26.1894   -2.4358   -7.2465 C.3       5 UNK         0.0660 
     19 N          25.0388   -1.6705   -6.7588 N.am      5 UNK        -0.4015 
     20 C          24.5089   -0.6374   -7.4328 C.2       4 UNK         0.4946 
     21 O          24.9361   -0.2371   -8.5169 O.2       4 UNK        -0.5353 
     22 CA         23.3214    0.0901   -6.7830 C.3       4 UNK         0.0277 
     23 CB         22.0286   -0.7280   -6.9347 C.3       4 UNK        -0.1981 
     24 N          23.5472    0.4043   -5.3718 N.am      4 UNK        -0.4209 
     25 C          24.4974    1.2368   -4.9228 C.2       3 UNK         0.4942 
     26 O          25.2814    1.8417   -5.6514 O.2       3 UNK        -0.5208 
     27 CA         24.6173    1.3984   -3.3992 C.3       3 UNK         0.0250 
     28 CB         23.6829    2.5121   -2.9002 C.3       3 UNK        -0.1990 
     29 N          24.3609    0.1663   -2.6459 N.am      3 UNK        -0.4232 
     30 C          25.0538   -0.9720   -2.7865 C.2       2 UNK         0.4993 
     31 O          25.9374   -1.1394   -3.6311 O.2       2 UNK        -0.5286 
     32 CA         24.6859   -2.1219   -1.8361 C.3       2 UNK         0.0209 
     33 CB         24.0326   -3.2816   -2.6050 C.3       2 UNK        -0.1931 
     34 N          25.8775   -2.6071   -1.1428 N.am      2 UNK        -0.4546 
     35 C          26.5463   -1.9274   -0.2035 C.2       1 UNK         0.5154 
     36 O          26.1458   -0.8657    0.2775 O.2       1 UNK        -0.5181 
     37 C          27.4920   -1.6170   -7.1379 C.2       5 UNK         0.5014 
     38 O          28.3226   -1.6940   -8.0433 O.2       5 UNK        -0.5248 
     39 N          27.6293   -0.8176   -6.0681 N.am      6 UNK        -0.4434 
     40 CA         28.7547    0.0947   -5.8668 C.3       6 UNK         0.0363 
     41 CB         28.7014    0.6886   -4.4520 C.3       6 UNK        -0.1936 
     42 C          28.8223    1.2020   -6.9313 C.2       6 UNK         0.5081 
     43 O          29.9151    1.5230   -7.4003 O.2       6 UNK        -0.5248 
     44 N          27.6579    1.7381   -7.3255 N.am      7 UNK        -0.4718 
     45 CA         27.5145    2.6856   -8.4318 C.3       7 UNK         0.0273 
     46 CB         26.1062    3.2998   -8.4198 C.3       7 UNK        -0.1935 
     47 C          27.8167    2.0466   -9.7958 C.2       7 UNK         0.5018 
     48 O          28.5019    2.6714  -10.6046 O.2       7 UNK        -0.5186 
     49 N          27.3379    0.8123  -10.0188 N.am      8 UNK        -0.4240 
     50 CA         27.6036    0.0288  -11.2313 C.3       8 UNK         0.0235 
     51 CB         26.7266   -1.2331  -11.2455 C.3       8 UNK        -0.2000 
     52 C          29.0897   -0.3361  -11.3957 C.2       8 UNK         0.4941 
     53 O          29.6192   -0.2301  -12.5024 O.2       8 UNK        -0.5273 
     54 N          29.7422   -0.7234  -10.2905 N.am      9 UNK        -0.4262 
     55 CA         31.1855   -0.9713  -10.2126 C.3       9 UNK         0.0264 
     56 CB         31.4868   -1.7481   -8.9217 C.3       9 UNK        -0.1955 
     57 C          32.0331    0.3141  -10.2603 C.2       9 UNK         0.5031 
     58 O          33.2310    0.2289  -10.5342 O.2       9 UNK        -0.5390 
     59 N          31.4048    1.4636   -9.9746 N.am      10 UNK        -0.4204 
     60 CA         31.9772    2.8079   -9.8623 C.3       10 UNK         0.0237 
     61 CB         32.5287    3.2929  -11.2202 C.3       10 UNK        -0.1985 
     62 C          32.9919    2.9385   -8.7093 C.2       10 UNK         0.4970 
     63 O          33.9443    3.7130   -8.8236 O.2       10 UNK        -0.4914 
     64 N          32.7649    2.1959   -7.6172 N.am      11 UNK        -0.4285 
     65 CA         33.5636    2.2647   -6.3836 C.3       11 UNK         0.1007 
     66 C          33.0027    3.2670   -5.3333 C.2       11 UNK         0.5703 
     67 N          31.7950    3.7963   -5.4996 N.am      11 UNK        -0.7361 
     68 O          33.6862    3.5875   -4.3636 O.2       11 UNK        -0.4986 
     69 C69        33.8394    0.8577   -5.7890 C.3       12 UNK        -0.0947 
     70 S70        32.3567   -0.0047   -5.1726 S.3       12 UNK        -0.2240 
     71 C71        32.9002   -1.7347   -5.2615 C.3       12 UNK         0.0194 
     72 H72        28.3068   -7.0141    0.2973 H         1 UNK         0.0906 
     73 H73        27.7216   -6.2451    1.7737 H         1 UNK         0.0906 
     74 H74        26.5719   -6.8339    0.5706 H         1 UNK         0.0906 
     75 H75        27.9075   -4.0464    1.7184 H         1 UNK         0.3140 
     76 H76        28.1413   -1.9594    1.1872 H         1 UNK         0.1085 
     77 H77        28.7849   -2.7411   -1.6907 H         1 UNK         0.0836 
     78 H78        29.0285   -1.1730   -0.9960 H         1 UNK         0.0836 
     79 H79        32.1166   -4.4485   -0.9153 H         1 UNK         0.0731 
     80 H80        30.4462   -4.9518   -0.9102 H         1 UNK         0.0731 
     81 H81        32.7633   -2.5424   -2.6615 H         1 UNK         0.1312 
     82 H82        30.7508   -2.9505   -6.4273 H         1 UNK         0.1406 
     83 H83        29.2898   -5.0393   -2.9866 H         1 UNK         0.1631 
     84 H84        28.9223   -4.4122   -6.6757 H         1 UNK         0.0717 
     85 H85        28.7941   -5.7432   -5.5515 H         1 UNK         0.0717 
     86 H86        26.7447   -4.5310   -7.3884 H         1 UNK         0.0934 
     87 H87        25.2652   -4.2815   -6.5383 H         1 UNK         0.0934 
     88 H88        26.0199   -2.5757   -8.3165 H         1 UNK         0.0739 
     89 H89        24.6878   -1.9043   -5.8414 H         1 UNK         0.3093 
     90 H90        23.1879    1.0353   -7.3140 H         1 UNK         0.0818 
     91 H91        21.1640   -0.1742   -6.5681 H         1 UNK         0.0819 
     92 H92        21.8381   -0.9635   -7.9828 H         1 UNK         0.0819 
     93 H93        22.0768   -1.6729   -6.3921 H         1 UNK         0.0819 
     94 H94        22.9477   -0.0464   -4.6963 H         1 UNK         0.3041 
     95 H95        25.6450    1.6987   -3.1858 H         1 UNK         0.0784 
     96 H96        23.8692    3.4452   -3.4342 H         1 UNK         0.0793 
     97 H97        22.6326    2.2568   -3.0471 H         1 UNK         0.0793 
     98 H98        23.8355    2.7134   -1.8396 H         1 UNK         0.0793 
     99 H99        23.6533    0.2199   -1.9271 H         1 UNK         0.3024 
    100 H100       23.9776   -1.7617   -1.0866 H         1 UNK         0.1171 
    101 H101       23.7421   -4.0884   -1.9319 H         1 UNK         0.0786 
    102 H102       23.1318   -2.9506   -3.1232 H         1 UNK         0.0786 
    103 H103       24.7061   -3.6996   -3.3535 H         1 UNK         0.0786 
    104 H104       26.2992   -3.4701   -1.4792 H         1 UNK         0.2977 
    105 H105       26.9367   -0.8652   -5.3247 H         1 UNK         0.3127 
    106 H106       29.6638   -0.5003   -5.9547 H         1 UNK         0.0770 
    107 H107       27.7965    1.2755   -4.2956 H         1 UNK         0.0814 
    108 H108       29.5548    1.3443   -4.2737 H         1 UNK         0.0814 
    109 H109       28.7300   -0.0957   -3.6949 H         1 UNK         0.0814 
    110 H110       26.8061    1.4818   -6.8334 H         1 UNK         0.2983 
    111 H111       28.2366    3.4906   -8.2778 H         1 UNK         0.0947 
    112 H112       25.9802    4.0078   -9.2400 H         1 UNK         0.0806 
    113 H113       25.9201    3.8420   -7.4926 H         1 UNK         0.0806 
    114 H114       25.3318    2.5384   -8.5213 H         1 UNK         0.0806 
    115 H115       26.7330    0.3899   -9.3210 H         1 UNK         0.3000 
    116 H116       27.3201    0.6456  -12.0869 H         1 UNK         0.0850 
    117 H117       26.8642   -1.7916  -12.1722 H         1 UNK         0.0810 
    118 H118       25.6681   -0.9827  -11.1714 H         1 UNK         0.0810 
    119 H119       26.9710   -1.9045  -10.4228 H         1 UNK         0.0810 
    120 H120       29.2080   -0.8758   -9.4355 H         1 UNK         0.3040 
    121 H121       31.4747   -1.5902  -11.0644 H         1 UNK         0.0766 
    122 H122       30.9417   -2.6917   -8.8916 H         1 UNK         0.0812 
    123 H123       31.2118   -1.1710   -8.0376 H         1 UNK         0.0812 
    124 H124       32.5491   -1.9828   -8.8433 H         1 UNK         0.0812 
    125 H125       30.4265    1.3994   -9.7239 H         1 UNK         0.3205 
    126 H126       31.1441    3.4606   -9.5975 H         1 UNK         0.0754 
    127 H127       32.8136    4.3447  -11.1743 H         1 UNK         0.0769 
    128 H128       31.7804    3.1956  -12.0070 H         1 UNK         0.0769 
    129 H129       33.4117    2.7301  -11.5243 H         1 UNK         0.0769 
    130 H130       31.9093    1.6512   -7.5658 H         1 UNK         0.2981 
    131 H131       34.5459    2.6637   -6.6426 H         1 UNK         0.0541 
    132 H132       31.2187    3.5122   -6.2762 H         1 UNK         0.3459 
    133 H133       31.4451    4.4520   -4.8196 H         1 UNK         0.3459 
    134 H134       34.5558    0.9280   -4.9686 H         1 UNK         0.0612 
    135 H135       34.3168    0.2352   -6.5475 H         1 UNK         0.0612 
    136 H136       33.8639   -1.8363   -4.7598 H         1 UNK         0.0624 
    137 H137       33.0620   -2.0123   -6.3038 H         1 UNK         0.0624 
@<TRIPOS>BOND
     1    1    2 1    
     2    1   72 1    
     3    1   73 1    
     4    1   74 1    
     5    2    3 2    
     6    2    4 am   BACKBONE|DICT|INTERRES
     7    4    5 1    
     8    4   75 1    
     9    5    6 1    
    10    5   35 1    
    11    5   76 1    
    12    6    7 1    
    13    6   77 1    
    14    6   78 1    
    15    7    8 1    
    16    8    9 1    
    17    8   79 1    
    18    8   80 1    
    19    9   10 ar   
    20    9   14 ar   
    21   10   11 ar   
    22   10   81 1    
    23   11   12 ar   
    24   11   71 1    
    25   12   13 ar   
    26   12   82 1    
    27   13   14 ar   
    28   13   15 1    
    29   14   83 1    
    30   15   16 1    
    31   15   84 1    
    32   15   85 1    
    33   16   17 1    
    34   17   18 1    
    35   17   86 1    
    36   17   87 1    
    37   18   19 1    
    38   18   37 1    
    39   18   88 1    
    40   19   20 am   BACKBONE|DICT|INTERRES
    41   19   89 1    
    42   20   21 2    
    43   20   22 1    
    44   22   23 1    
    45   22   24 1    
    46   22   90 1    
    47   23   91 1    
    48   23   92 1    
    49   23   93 1    
    50   24   25 am   BACKBONE|DICT|INTERRES
    51   24   94 1    
    52   25   26 2    
    53   25   27 1    
    54   27   28 1    
    55   27   29 1    
    56   27   95 1    
    57   28   96 1    
    58   28   97 1    
    59   28   98 1    
    60   29   30 am   BACKBONE|DICT|INTERRES
    61   29   99 1    
    62   30   31 2    
    63   30   32 1    
    64   32   33 1    
    65   32   34 1    
    66   32  100 1    
    67   33  101 1    
    68   33  102 1    
    69   33  103 1    
    70   34   35 am   BACKBONE|DICT|INTERRES
    71   34  104 1    
    72   35   36 2    
    73   37   38 2    
    74   37   39 am   BACKBONE|DICT|INTERRES
    75   39   40 1    
    76   39  105 1    
    77   40   41 1    
    78   40   42 1    
    79   40  106 1    
    80   41  107 1    
    81   41  108 1    
    82   41  109 1    
    83   42   43 2    
    84   42   44 am   BACKBONE|DICT|INTERRES
    85   44   45 1    
    86   44  110 1    
    87   45   46 1    
    88   45   47 1    
    89   45  111 1    
    90   46  112 1    
    91   46  113 1    
    92   46  114 1    
    93   47   48 2    
    94   47   49 am   BACKBONE|DICT|INTERRES
    95   49   50 1    
    96   49  115 1    
    97   50   51 1    
    98   50   52 1    
    99   50  116 1    
   100   51  117 1    
   101   51  118 1    
   102   51  119 1    
   103   52   53 2    
   104   52   54 am   BACKBONE|DICT|INTERRES
   105   54   55 1    
   106   54  120 1    
   107   55   56 1    
   108   55   57 1    
   109   55  121 1    
   110   56  122 1    
   111   56  123 1    
   112   56  124 1    
   113   57   58 2    
   114   57   59 am   BACKBONE|DICT|INTERRES
   115   59   60 1    
   116   59  125 1    
   117   60   61 1    
   118   60   62 1    
   119   60  126 1    
   120   61  127 1    
   121   61  128 1    
   122   61  129 1    
   123   62   63 2    
   124   62   64 am   BACKBONE|DICT|INTERRES
   125   64   65 1    
   126   64  130 1    
   127   65   66 1    
   128   65   69 1    
   129   65  131 1    
   130   66   67 am   BACKBONE|DICT|INTERRES
   131   66   68 2    
   132   67  132 1    
   133   67  133 1    
   134   69   70 1    
   135   69  134 1    
   136   69  135 1    
   137   70   71 1    
   138   71  136 1    
   139   71  137 1    
@<TRIPOS>SUBSTRUCTURE
     1 UNK         1 GROUP             0       ****    0 ROOT    
