@<TRIPOS>MOLECULE
3R137
137   139    1
SMALL
USER_CHARGES


@<TRIPOS>ATOM
      1 CA         25.1525   -5.9645   -5.5684 C.3       0 UNK        -0.2020 
      2 C          25.4115   -5.3559   -4.1989 C.2       0 UNK         0.4855 
      3 O          24.4691   -4.9316   -3.5297 O.2       0 UNK        -0.5197 
      4 N          26.6840   -5.2952   -3.7835 N.am      1 UNK        -0.4892 
      5 CA         27.1441   -4.7211   -2.5136 C.3       1 UNK         0.0835 
      6 C6         28.6642   -4.9438   -2.3322 C.3       12 UNK        -0.0855 
      7 S7         29.2229   -4.6101   -0.6280 S.3       12 UNK        -0.2931 
      8 C8         30.9353   -4.0551   -0.9098 C.3       12 UNK         0.0378 
      9 C9         31.0102   -2.7219   -1.6441 C.ar      12 UNK        -0.0802 
     10 C10        31.5632   -2.6522   -2.9270 C.ar      12 UNK        -0.0944 
     11 C11        31.6782   -1.4231   -3.5823 C.ar      12 UNK        -0.0787 
     12 C12        31.2315   -0.2601   -2.9496 C.ar      12 UNK        -0.0862 
     13 C13        30.6530   -0.3169   -1.6770 C.ar      12 UNK        -0.0733 
     14 C14        30.5543   -1.5522   -1.0278 C.ar      12 UNK        -0.0832 
     15 C15        30.1456    0.9443   -0.9804 C.3       12 UNK         0.0240 
     16 S16        29.2541    2.1043   -2.0761 S.3       12 UNK        -0.2522 
     17 C17        27.9335    1.0516   -2.7644 C.3       12 UNK        -0.0967 
     18 CA         27.8967    1.1092   -4.3158 C.3       5 UNK         0.0660 
     19 N          27.4638   -0.1600   -4.9023 N.am      5 UNK        -0.4015 
     20 C          27.4202   -0.4440   -6.2120 C.2       4 UNK         0.4946 
     21 O          27.8579    0.2942   -7.0959 O.2       4 UNK        -0.5353 
     22 CA         26.7147   -1.7536   -6.6030 C.3       4 UNK         0.0277 
     23 CB         27.6799   -2.9494   -6.5452 C.3       4 UNK        -0.1981 
     24 N          25.5463   -2.0140   -5.7561 N.am      4 UNK        -0.4209 
     25 C          24.4119   -1.2984   -5.7932 C.2       3 UNK         0.4942 
     26 O          24.2053   -0.3887   -6.5934 O.2       3 UNK        -0.5208 
     27 CA         23.3474   -1.6119   -4.7296 C.3       3 UNK         0.0250 
     28 CB         22.4214   -2.7454   -5.1967 C.3       3 UNK        -0.1990 
     29 N          23.9397   -1.9428   -3.4309 N.am      3 UNK        -0.4232 
     30 C          24.5561   -1.0431   -2.6482 C.2       2 UNK         0.4993 
     31 O          24.6429    0.1528   -2.9259 O.2       2 UNK        -0.5286 
     32 CA         25.2426   -1.5626   -1.3718 C.3       2 UNK         0.0209 
     33 CB         24.2612   -1.5510   -0.1898 C.3       2 UNK        -0.1931 
     34 N          25.8192   -2.9027   -1.5186 N.am      2 UNK        -0.4546 
     35 C          26.7573   -3.2305   -2.4178 C.2       1 UNK         0.5154 
     36 O          27.2586   -2.4213   -3.2000 O.2       1 UNK        -0.5181 
     37 C          27.0335    2.2848   -4.8199 C.2       5 UNK         0.5014 
     38 O          27.5778    3.2542   -5.3497 O.2       5 UNK        -0.5248 
     39 N          25.7038    2.1568   -4.6829 N.am      6 UNK        -0.4434 
     40 CA         24.7115    3.1426   -5.1237 C.3       6 UNK         0.0363 
     41 CB         23.3148    2.7135   -4.6474 C.3       6 UNK        -0.1936 
     42 C          24.7123    3.3832   -6.6433 C.2       6 UNK         0.5081 
     43 O          24.5714    4.5285   -7.0726 O.2       6 UNK        -0.5248 
     44 N          24.8923    2.3124   -7.4285 N.am      7 UNK        -0.4718 
     45 CA         25.0172    2.3608   -8.8887 C.3       7 UNK         0.0273 
     46 CB         24.8118    0.9467   -9.4565 C.3       7 UNK        -0.1935 
     47 C          26.3579    2.9365   -9.3826 C.2       7 UNK         0.5018 
     48 O          26.4570    3.2607  -10.5668 O.2       7 UNK        -0.5186 
     49 N          27.3550    3.0330   -8.4888 N.am      8 UNK        -0.4240 
     50 CA         28.7452    3.4272   -8.7384 C.3       8 UNK         0.0235 
     51 CB         28.8374    4.9094   -9.1605 C.3       8 UNK        -0.2000 
     52 C          29.4408    2.4645   -9.7191 C.2       8 UNK         0.4941 
     53 O          29.9960    2.8983  -10.7317 O.2       8 UNK        -0.5273 
     54 N          29.3643    1.1640   -9.4048 N.am      9 UNK        -0.4262 
     55 CA         29.9696    0.0679  -10.1646 C.3       9 UNK         0.0264 
     56 CB         29.4694   -1.2617   -9.5765 C.3       9 UNK        -0.1955 
     57 C          31.5100    0.1042  -10.1606 C.2       9 UNK         0.5031 
     58 O          32.1200    0.7936   -9.3373 O.2       9 UNK        -0.5390 
     59 N          32.1122   -0.6800  -11.0656 N.am      10 UNK        -0.4204 
     60 CA         33.5576   -0.8833  -11.1987 C.3       10 UNK         0.0237 
     61 CB         33.8460   -1.5541  -12.5548 C.3       10 UNK        -0.1985 
     62 C          34.1297   -1.6879  -10.0147 C.2       10 UNK         0.4970 
     63 O          34.3660   -2.8911  -10.1358 O.2       10 UNK        -0.4914 
     64 N          34.3016   -0.9997   -8.8825 N.am      11 UNK        -0.4285 
     65 CA         34.7815   -1.5321   -7.5999 C.3       11 UNK         0.1007 
     66 C          36.2565   -2.0344   -7.5975 C.2       11 UNK         0.5703 
     67 N          37.0946   -1.6283   -8.5445 N.am      11 UNK        -0.7361 
     68 O          36.6436   -2.8136   -6.7303 O.2       11 UNK        -0.4986 
     69 C69        34.5189   -0.4985   -6.4701 C.3       12 UNK        -0.0947 
     70 S70        34.1080   -1.2578   -4.8663 S.3       12 UNK        -0.2240 
     71 C71        32.2931   -1.3418   -4.9693 C.3       12 UNK         0.0194 
     72 H72        24.7829   -5.2038   -6.2551 H         1 UNK         0.0906 
     73 H73        26.0539   -6.4010   -5.9982 H         1 UNK         0.0906 
     74 H74        24.4006   -6.7496   -5.4928 H         1 UNK         0.0906 
     75 H75        27.4129   -5.6482   -4.3871 H         1 UNK         0.3140 
     76 H76        26.6282   -5.2649   -1.7191 H         1 UNK         0.1085 
     77 H77        28.9192   -5.9813   -2.5545 H         1 UNK         0.0836 
     78 H78        29.2265   -4.3378   -3.0448 H         1 UNK         0.0836 
     79 H79        31.4764   -4.8314   -1.4533 H         1 UNK         0.0731 
     80 H80        31.4350   -3.9556    0.0548 H         1 UNK         0.0731 
     81 H81        31.9207   -3.5504   -3.4118 H         1 UNK         0.1312 
     82 H82        31.3299    0.6917   -3.4531 H         1 UNK         0.1406 
     83 H83        30.1229   -1.6094   -0.0374 H         1 UNK         0.1631 
     84 H84        30.9965    1.4647   -0.5394 H         1 UNK         0.0717 
     85 H85        29.4822    0.6822   -0.1546 H         1 UNK         0.0717 
     86 H86        28.1012    0.0265   -2.4331 H         1 UNK         0.0934 
     87 H87        26.9821    1.3420   -2.3151 H         1 UNK         0.0934 
     88 H88        28.9126    1.2675   -4.6847 H         1 UNK         0.0739 
     89 H89        27.1784   -0.8869   -4.2505 H         1 UNK         0.3093 
     90 H90        26.3684   -1.6480   -7.6332 H         1 UNK         0.0818 
     91 H91        27.1863   -3.8720   -6.8496 H         1 UNK         0.0819 
     92 H92        28.5242   -2.8026   -7.2174 H         1 UNK         0.0819 
     93 H93        28.0906   -3.1004   -5.5472 H         1 UNK         0.0819 
     94 H94        25.6611   -2.6946   -5.0195 H         1 UNK         0.3041 
     95 H95        22.7367   -0.7155   -4.6012 H         1 UNK         0.0784 
     96 H96        21.9259   -2.4799   -6.1316 H         1 UNK         0.0793 
     97 H97        22.9654   -3.6731   -5.3712 H         1 UNK         0.0793 
     98 H98        21.6409   -2.9477   -4.4631 H         1 UNK         0.0793 
     99 H99        23.9512   -2.9225   -3.1650 H         1 UNK         0.3024 
    100 H100       26.0609   -0.8766   -1.1430 H         1 UNK         0.1171 
    101 H101       23.8341   -0.5571   -0.0477 H         1 UNK         0.0786 
    102 H102       24.7579   -1.8236    0.7416 H         1 UNK         0.0786 
    103 H103       23.4324   -2.2430   -0.3449 H         1 UNK         0.0786 
    104 H104       25.4302   -3.6291   -0.9343 H         1 UNK         0.2977 
    105 H105       25.3400    1.3423   -4.1910 H         1 UNK         0.3127 
    106 H106       24.9588    4.0907   -4.6418 H         1 UNK         0.0770 
    107 H107       23.0197    1.7562   -5.0783 H         1 UNK         0.0814 
    108 H108       22.5611    3.4478   -4.9347 H         1 UNK         0.0814 
    109 H109       23.2773    2.6174   -3.5622 H         1 UNK         0.0814 
    110 H110       24.9140    1.3892   -7.0027 H         1 UNK         0.2983 
    111 H111       24.2258    3.0049   -9.2783 H         1 UNK         0.0947 
    112 H112       24.8656    0.9480  -10.5459 H         1 UNK         0.0806 
    113 H113       23.8357    0.5463   -9.1821 H         1 UNK         0.0806 
    114 H114       25.5730    0.2555   -9.0927 H         1 UNK         0.0806 
    115 H115       27.1618    2.7221   -7.5440 H         1 UNK         0.3000 
    116 H116       29.2664    3.3238   -7.7851 H         1 UNK         0.0850 
    117 H117       29.8780    5.2255   -9.2411 H         1 UNK         0.0810 
    118 H118       28.3564    5.5588   -8.4290 H         1 UNK         0.0810 
    119 H119       28.3687    5.0886  -10.1285 H         1 UNK         0.0810 
    120 H120       28.8718    0.9020   -8.5522 H         1 UNK         0.3040 
    121 H121       29.6271    0.1515  -11.1981 H         1 UNK         0.0766 
    122 H122       28.3800   -1.3056   -9.5597 H         1 UNK         0.0812 
    123 H123       29.8271   -1.3966   -8.5552 H         1 UNK         0.0812 
    124 H124       29.8170   -2.1151  -10.1597 H         1 UNK         0.0812 
    125 H125       31.5309   -1.2316  -11.6804 H         1 UNK         0.3205 
    126 H126       34.0437    0.0949  -11.2034 H         1 UNK         0.0754 
    127 H127       34.9161   -1.7192  -12.6881 H         1 UNK         0.0769 
    128 H128       33.5109   -0.9313  -13.3846 H         1 UNK         0.0769 
    129 H129       33.3535   -2.5235  -12.6429 H         1 UNK         0.0769 
    130 H130       33.9730   -0.0410   -8.8721 H         1 UNK         0.2981 
    131 H131       34.1654   -2.4120   -7.4049 H         1 UNK         0.0541 
    132 H132       36.7871   -0.9901   -9.2603 H         1 UNK         0.3459 
    133 H133       38.0451   -1.9631   -8.5394 H         1 UNK         0.3459 
    134 H134       33.6982    0.1688   -6.7386 H         1 UNK         0.0612 
    135 H135       35.3789    0.1598   -6.3325 H         1 UNK         0.0612 
    136 H136       31.9022   -0.4670   -5.4913 H         1 UNK         0.0624 
    137 H137       32.0042   -2.2093   -5.5645 H         1 UNK         0.0624 
@<TRIPOS>BOND
     1    1    2 1    
     2    1   72 1    
     3    1   73 1    
     4    1   74 1    
     5    2    3 2    
     6    2    4 am   BACKBONE|DICT|INTERRES
     7    4    5 1    
     8    4   75 1    
     9    5    6 1    
    10    5   35 1    
    11    5   76 1    
    12    6    7 1    
    13    6   77 1    
    14    6   78 1    
    15    7    8 1    
    16    8    9 1    
    17    8   79 1    
    18    8   80 1    
    19    9   10 ar   
    20    9   14 ar   
    21   10   11 ar   
    22   10   81 1    
    23   11   12 ar   
    24   11   71 1    
    25   12   13 ar   
    26   12   82 1    
    27   13   14 ar   
    28   13   15 1    
    29   14   83 1    
    30   15   16 1    
    31   15   84 1    
    32   15   85 1    
    33   16   17 1    
    34   17   18 1    
    35   17   86 1    
    36   17   87 1    
    37   18   19 1    
    38   18   37 1    
    39   18   88 1    
    40   19   20 am   BACKBONE|DICT|INTERRES
    41   19   89 1    
    42   20   21 2    
    43   20   22 1    
    44   22   23 1    
    45   22   24 1    
    46   22   90 1    
    47   23   91 1    
    48   23   92 1    
    49   23   93 1    
    50   24   25 am   BACKBONE|DICT|INTERRES
    51   24   94 1    
    52   25   26 2    
    53   25   27 1    
    54   27   28 1    
    55   27   29 1    
    56   27   95 1    
    57   28   96 1    
    58   28   97 1    
    59   28   98 1    
    60   29   30 am   BACKBONE|DICT|INTERRES
    61   29   99 1    
    62   30   31 2    
    63   30   32 1    
    64   32   33 1    
    65   32   34 1    
    66   32  100 1    
    67   33  101 1    
    68   33  102 1    
    69   33  103 1    
    70   34   35 am   BACKBONE|DICT|INTERRES
    71   34  104 1    
    72   35   36 2    
    73   37   38 2    
    74   37   39 am   BACKBONE|DICT|INTERRES
    75   39   40 1    
    76   39  105 1    
    77   40   41 1    
    78   40   42 1    
    79   40  106 1    
    80   41  107 1    
    81   41  108 1    
    82   41  109 1    
    83   42   43 2    
    84   42   44 am   BACKBONE|DICT|INTERRES
    85   44   45 1    
    86   44  110 1    
    87   45   46 1    
    88   45   47 1    
    89   45  111 1    
    90   46  112 1    
    91   46  113 1    
    92   46  114 1    
    93   47   48 2    
    94   47   49 am   BACKBONE|DICT|INTERRES
    95   49   50 1    
    96   49  115 1    
    97   50   51 1    
    98   50   52 1    
    99   50  116 1    
   100   51  117 1    
   101   51  118 1    
   102   51  119 1    
   103   52   53 2    
   104   52   54 am   BACKBONE|DICT|INTERRES
   105   54   55 1    
   106   54  120 1    
   107   55   56 1    
   108   55   57 1    
   109   55  121 1    
   110   56  122 1    
   111   56  123 1    
   112   56  124 1    
   113   57   58 2    
   114   57   59 am   BACKBONE|DICT|INTERRES
   115   59   60 1    
   116   59  125 1    
   117   60   61 1    
   118   60   62 1    
   119   60  126 1    
   120   61  127 1    
   121   61  128 1    
   122   61  129 1    
   123   62   63 2    
   124   62   64 am   BACKBONE|DICT|INTERRES
   125   64   65 1    
   126   64  130 1    
   127   65   66 1    
   128   65   69 1    
   129   65  131 1    
   130   66   67 am   BACKBONE|DICT|INTERRES
   131   66   68 2    
   132   67  132 1    
   133   67  133 1    
   134   69   70 1    
   135   69  134 1    
   136   69  135 1    
   137   70   71 1    
   138   71  136 1    
   139   71  137 1    
@<TRIPOS>SUBSTRUCTURE
     1 UNK         1 GROUP             0       ****    0 ROOT    
