@<TRIPOS>MOLECULE
3R137
137   139    1
SMALL
USER_CHARGES


@<TRIPOS>ATOM
      1 CA         29.8459   -6.1797   -3.5794 C.3       0 UNK        -0.2020 
      2 C          28.7230   -5.7562   -2.6449 C.2       0 UNK         0.4855 
      3 O          27.8936   -6.5846   -2.2663 O.2       0 UNK        -0.5197 
      4 N          28.7003   -4.4718   -2.2690 N.am      1 UNK        -0.4892 
      5 CA         27.6659   -3.8620   -1.4234 C.3       1 UNK         0.0835 
      6 C6         28.2471   -2.7587   -0.4939 C.3       12 UNK        -0.0855 
      7 S7         29.6039   -3.4059    0.5546 S.3       12 UNK        -0.2931 
      8 C8         30.8915   -2.1108    0.4715 C.3       12 UNK         0.0378 
      9 C9         31.1981   -1.6487   -0.9476 C.ar      12 UNK        -0.0802 
     10 C10        31.5448   -2.5697   -1.9421 C.ar      12 UNK        -0.0944 
     11 C11        31.7342   -2.1470   -3.2605 C.ar      12 UNK        -0.0787 
     12 C12        31.5954   -0.7921   -3.5767 C.ar      12 UNK        -0.0862 
     13 C13        31.2975    0.1437   -2.5833 C.ar      12 UNK        -0.0733 
     14 C14        31.1043   -0.2908   -1.2691 C.ar      12 UNK        -0.0832 
     15 C15        31.1606    1.6184   -2.9411 C.3       12 UNK         0.0240 
     16 S16        29.5189    2.3130   -2.5428 S.3       12 UNK        -0.2522 
     17 C17        28.3744    1.0503   -3.1924 C.3       12 UNK        -0.0967 
     18 CA         28.2890    1.0343   -4.7396 C.3       5 UNK         0.0660 
     19 N          27.8624   -0.2744   -5.2134 N.am      5 UNK        -0.4015 
     20 C          28.4401   -0.9995   -6.1790 C.2       4 UNK         0.4946 
     21 O          29.5109   -0.7140   -6.7220 O.2       4 UNK        -0.5353 
     22 CA         27.6826   -2.2659   -6.6281 C.3       4 UNK         0.0277 
     23 CB         28.3798   -3.5263   -6.0974 C.3       4 UNK        -0.1981 
     24 N          26.2709   -2.2835   -6.2206 N.am      4 UNK        -0.4209 
     25 C          25.3439   -1.4260   -6.6776 C.2       3 UNK         0.4942 
     26 O          25.5851   -0.5415   -7.4975 O.2       3 UNK        -0.5208 
     27 CA         23.9299   -1.5073   -6.0790 C.3       3 UNK         0.0250 
     28 CB         23.0373   -2.4101   -6.9443 C.3       3 UNK        -0.1990 
     29 N          23.8762   -1.9610   -4.6857 N.am      3 UNK        -0.4232 
     30 C          24.5213   -1.4147   -3.6442 C.2       2 UNK         0.4993 
     31 O          25.2845   -0.4508   -3.7414 O.2       2 UNK        -0.5286 
     32 CA         24.3205   -2.0744   -2.2640 C.3       2 UNK         0.0209 
     33 CB         23.2521   -3.1921   -2.2487 C.3       2 UNK        -0.1931 
     34 N          25.5745   -2.5838   -1.6892 N.am      2 UNK        -0.4546 
     35 C          26.4769   -3.3772   -2.2893 C.2       1 UNK         0.5154 
     36 O          26.3797   -3.7381   -3.4669 O.2       1 UNK        -0.5181 
     37 C          27.3159    2.1040   -5.2696 C.2       5 UNK         0.5014 
     38 O          27.7505    3.0503   -5.9269 O.2       5 UNK        -0.5248 
     39 N          26.0156    1.9317   -4.9828 N.am      6 UNK        -0.4434 
     40 CA         24.9572    2.9238   -5.1955 C.3       6 UNK         0.0363 
     41 CB         23.6581    2.4341   -4.5361 C.3       6 UNK        -0.1936 
     42 C          24.7054    3.3168   -6.6605 C.2       6 UNK         0.5081 
     43 O          24.3058    4.4552   -6.9061 O.2       6 UNK        -0.5248 
     44 N          24.9575    2.4041   -7.6099 N.am      7 UNK        -0.4718 
     45 CA         24.8592    2.6815   -9.0485 C.3       7 UNK         0.0273 
     46 CB         24.5559    1.3730   -9.7994 C.3       7 UNK        -0.1935 
     47 C          26.1204    3.3573   -9.6233 C.2       7 UNK         0.5018 
     48 O          26.1617    3.5974  -10.8305 O.2       7 UNK        -0.5186 
     49 N          27.1321    3.6152   -8.7764 N.am      8 UNK        -0.4240 
     50 CA         28.4722    4.1167   -9.1094 C.3       8 UNK         0.0235 
     51 CB         28.4125    5.5310   -9.7262 C.3       8 UNK        -0.2000 
     52 C          29.2885    3.1200   -9.9562 C.2       8 UNK         0.4941 
     53 O          30.1676    3.5322  -10.7146 O.2       8 UNK        -0.5273 
     54 N          28.9907    1.8211   -9.8015 N.am      9 UNK        -0.4262 
     55 CA         29.6517    0.7176  -10.5004 C.3       9 UNK         0.0264 
     56 CB         28.7815   -0.5442  -10.3849 C.3       9 UNK        -0.1955 
     57 C          31.0758    0.4384   -9.9910 C.2       9 UNK         0.5031 
     58 O          31.8653   -0.1467  -10.7336 O.2       9 UNK        -0.5390 
     59 N          31.3697    0.8367   -8.7420 N.am      10 UNK        -0.4204 
     60 CA         32.6543    0.7023   -8.0415 C.3       10 UNK         0.0237 
     61 CB         33.6882    1.6865   -8.6282 C.3       10 UNK        -0.1985 
     62 C          33.1595   -0.7531   -8.0072 C.2       10 UNK         0.4970 
     63 O          34.3256   -1.0130   -8.3103 O.2       10 UNK        -0.4914 
     64 N          32.2442   -1.6705   -7.6707 N.am      11 UNK        -0.4285 
     65 CA         32.4361   -3.1315   -7.6706 C.3       11 UNK         0.1007 
     66 C          32.5331   -3.7828   -9.0840 C.2       11 UNK         0.5703 
     67 N          32.3458   -3.0573  -10.1810 N.am      11 UNK        -0.7361 
     68 O          32.7474   -4.9881   -9.1900 O.2       11 UNK        -0.4986 
     69 C69        33.5652   -3.6393   -6.7166 C.3       12 UNK        -0.0947 
     70 S70        33.6832   -2.8031   -5.0966 S.3       12 UNK        -0.2240 
     71 C71        32.0584   -3.1462   -4.3580 C.3       12 UNK         0.0194 
     72 H72        29.9952   -5.4470   -4.3710 H         1 UNK         0.0906 
     73 H73        30.7775   -6.2934   -3.0258 H         1 UNK         0.0906 
     74 H74        29.6125   -7.1341   -4.0512 H         1 UNK         0.0906 
     75 H75        29.4037   -3.8349   -2.6120 H         1 UNK         0.3140 
     76 H76        27.2530   -4.6367   -0.7731 H         1 UNK         0.1085 
     77 H77        27.4841   -2.3741    0.1842 H         1 UNK         0.0836 
     78 H78        28.5834   -1.9049   -1.0828 H         1 UNK         0.0836 
     79 H79        31.8069   -2.4934    0.9249 H         1 UNK         0.0731 
     80 H80        30.5710   -1.2711    1.0902 H         1 UNK         0.0731 
     81 H81        31.6357   -3.6177   -1.6900 H         1 UNK         0.1312 
     82 H82        31.7276   -0.4701   -4.6009 H         1 UNK         0.1406 
     83 H83        30.8480    0.4310   -0.5051 H         1 UNK         0.1631 
     84 H84        31.3582    1.7781   -4.0021 H         1 UNK         0.0717 
     85 H85        31.9213    2.1857   -2.4033 H         1 UNK         0.0717 
     86 H86        28.6916    0.0751   -2.8227 H         1 UNK         0.0934 
     87 H87        27.3961    1.2037   -2.7325 H         1 UNK         0.0934 
     88 H88        29.2761    1.2529   -5.1512 H         1 UNK         0.0739 
     89 H89        26.9813   -0.6056   -4.8357 H         1 UNK         0.3093 
     90 H90        27.7083   -2.2963   -7.7186 H         1 UNK         0.0818 
     91 H91        29.3672   -3.6365   -6.5407 H         1 UNK         0.0819 
     92 H92        27.8179   -4.4291   -6.3374 H         1 UNK         0.0819 
     93 H93        28.5089   -3.4873   -5.0162 H         1 UNK         0.0819 
     94 H94        26.0175   -2.9399   -5.4895 H         1 UNK         0.3041 
     95 H95        23.5140   -0.4995   -6.1077 H         1 UNK         0.0784 
     96 H96        23.0399   -2.0799   -7.9843 H         1 UNK         0.0793 
     97 H97        23.3767   -3.4467   -6.9304 H         1 UNK         0.0793 
     98 H98        22.0018   -2.3898   -6.6040 H         1 UNK         0.0793 
     99 H99        23.3006   -2.7703   -4.5032 H         1 UNK         0.3024 
    100 H100       23.9742   -1.2757   -1.6058 H         1 UNK         0.1171 
    101 H101       23.0916   -3.5610   -1.2354 H         1 UNK         0.0786 
    102 H102       22.2872   -2.8283   -2.6052 H         1 UNK         0.0786 
    103 H103       23.5402   -4.0466   -2.8627 H         1 UNK         0.0786 
    104 H104       25.7476   -2.3093   -0.7327 H         1 UNK         0.2977 
    105 H105       25.7391    1.0973   -4.4654 H         1 UNK         0.3127 
    106 H106       25.2703    3.8324   -4.6767 H         1 UNK         0.0770 
    107 H107       23.2908    1.5178   -4.9962 H         1 UNK         0.0814 
    108 H108       22.8689    3.1819   -4.6260 H         1 UNK         0.0814 
    109 H109       23.8002    2.2412   -3.4726 H         1 UNK         0.0814 
    110 H110       25.2712    1.4742   -7.3476 H         1 UNK         0.2983 
    111 H111       24.0238    3.3637   -9.2217 H         1 UNK         0.0947 
    112 H112       23.7024    0.8510   -9.3666 H         1 UNK         0.0806 
    113 H113       25.4083    0.6931   -9.7870 H         1 UNK         0.0806 
    114 H114       24.3179    1.5701  -10.8454 H         1 UNK         0.0806 
    115 H115       27.0013    3.3860   -7.7955 H         1 UNK         0.3000 
    116 H116       29.0022    4.2007   -8.1594 H         1 UNK         0.0850 
    117 H117       27.9767    5.5221  -10.7255 H         1 UNK         0.0810 
    118 H118       29.4114    5.9600   -9.8144 H         1 UNK         0.0810 
    119 H119       27.8239    6.2088   -9.1081 H         1 UNK         0.0810 
    120 H120       28.2471    1.5759   -9.1643 H         1 UNK         0.3040 
    121 H121       29.7299    0.9826  -11.5571 H         1 UNK         0.0766 
    122 H122       27.7925   -0.3867  -10.8156 H         1 UNK         0.0812 
    123 H123       28.6512   -0.8482   -9.3471 H         1 UNK         0.0812 
    124 H124       29.2357   -1.3826  -10.9152 H         1 UNK         0.0812 
    125 H125       30.6163    1.2333   -8.1982 H         1 UNK         0.3205 
    126 H126       32.4746    0.9873   -7.0037 H         1 UNK         0.0754 
    127 H127       33.3148    2.7105   -8.6101 H         1 UNK         0.0769 
    128 H128       33.9386    1.4403   -9.6608 H         1 UNK         0.0769 
    129 H129       34.6154    1.6696   -8.0541 H         1 UNK         0.0769 
    130 H130       31.3070   -1.3505   -7.4446 H         1 UNK         0.2981 
    131 H131       31.4986   -3.5247   -7.2860 H         1 UNK         0.0541 
    132 H132       32.1986   -2.0553  -10.1384 H         1 UNK         0.3459 
    133 H133       32.4023   -3.5116  -11.0781 H         1 UNK         0.3459 
    134 H134       33.4470   -4.7086   -6.5330 H         1 UNK         0.0612 
    135 H135       34.5373   -3.5264   -7.1994 H         1 UNK         0.0612 
    136 H136       31.2737   -3.0822   -5.1091 H         1 UNK         0.0624 
    137 H137       32.0558   -4.1684   -3.9787 H         1 UNK         0.0624 
@<TRIPOS>BOND
     1    1    2 1    
     2    1   72 1    
     3    1   73 1    
     4    1   74 1    
     5    2    3 2    
     6    2    4 am   BACKBONE|DICT|INTERRES
     7    4    5 1    
     8    4   75 1    
     9    5    6 1    
    10    5   35 1    
    11    5   76 1    
    12    6    7 1    
    13    6   77 1    
    14    6   78 1    
    15    7    8 1    
    16    8    9 1    
    17    8   79 1    
    18    8   80 1    
    19    9   10 ar   
    20    9   14 ar   
    21   10   11 ar   
    22   10   81 1    
    23   11   12 ar   
    24   11   71 1    
    25   12   13 ar   
    26   12   82 1    
    27   13   14 ar   
    28   13   15 1    
    29   14   83 1    
    30   15   16 1    
    31   15   84 1    
    32   15   85 1    
    33   16   17 1    
    34   17   18 1    
    35   17   86 1    
    36   17   87 1    
    37   18   19 1    
    38   18   37 1    
    39   18   88 1    
    40   19   20 am   BACKBONE|DICT|INTERRES
    41   19   89 1    
    42   20   21 2    
    43   20   22 1    
    44   22   23 1    
    45   22   24 1    
    46   22   90 1    
    47   23   91 1    
    48   23   92 1    
    49   23   93 1    
    50   24   25 am   BACKBONE|DICT|INTERRES
    51   24   94 1    
    52   25   26 2    
    53   25   27 1    
    54   27   28 1    
    55   27   29 1    
    56   27   95 1    
    57   28   96 1    
    58   28   97 1    
    59   28   98 1    
    60   29   30 am   BACKBONE|DICT|INTERRES
    61   29   99 1    
    62   30   31 2    
    63   30   32 1    
    64   32   33 1    
    65   32   34 1    
    66   32  100 1    
    67   33  101 1    
    68   33  102 1    
    69   33  103 1    
    70   34   35 am   BACKBONE|DICT|INTERRES
    71   34  104 1    
    72   35   36 2    
    73   37   38 2    
    74   37   39 am   BACKBONE|DICT|INTERRES
    75   39   40 1    
    76   39  105 1    
    77   40   41 1    
    78   40   42 1    
    79   40  106 1    
    80   41  107 1    
    81   41  108 1    
    82   41  109 1    
    83   42   43 2    
    84   42   44 am   BACKBONE|DICT|INTERRES
    85   44   45 1    
    86   44  110 1    
    87   45   46 1    
    88   45   47 1    
    89   45  111 1    
    90   46  112 1    
    91   46  113 1    
    92   46  114 1    
    93   47   48 2    
    94   47   49 am   BACKBONE|DICT|INTERRES
    95   49   50 1    
    96   49  115 1    
    97   50   51 1    
    98   50   52 1    
    99   50  116 1    
   100   51  117 1    
   101   51  118 1    
   102   51  119 1    
   103   52   53 2    
   104   52   54 am   BACKBONE|DICT|INTERRES
   105   54   55 1    
   106   54  120 1    
   107   55   56 1    
   108   55   57 1    
   109   55  121 1    
   110   56  122 1    
   111   56  123 1    
   112   56  124 1    
   113   57   58 2    
   114   57   59 am   BACKBONE|DICT|INTERRES
   115   59   60 1    
   116   59  125 1    
   117   60   61 1    
   118   60   62 1    
   119   60  126 1    
   120   61  127 1    
   121   61  128 1    
   122   61  129 1    
   123   62   63 2    
   124   62   64 am   BACKBONE|DICT|INTERRES
   125   64   65 1    
   126   64  130 1    
   127   65   66 1    
   128   65   69 1    
   129   65  131 1    
   130   66   67 am   BACKBONE|DICT|INTERRES
   131   66   68 2    
   132   67  132 1    
   133   67  133 1    
   134   69   70 1    
   135   69  134 1    
   136   69  135 1    
   137   70   71 1    
   138   71  136 1    
   139   71  137 1    
@<TRIPOS>SUBSTRUCTURE
     1 UNK         1 GROUP             0       ****    0 ROOT    
