@<TRIPOS>MOLECULE
3R137
137   139    1
SMALL
USER_CHARGES


@<TRIPOS>ATOM
      1 CA         27.3150   -6.6519    1.3928 C.3       0 UNK        -0.2020 
      2 C          27.3009   -5.2876    0.7194 C.2       0 UNK         0.4855 
      3 O          27.4784   -5.2187   -0.4965 O.2       0 UNK        -0.5197 
      4 N          27.0766   -4.2258    1.5104 N.am      1 UNK        -0.4892 
      5 CA         27.0208   -2.7792    1.2124 C.3       1 UNK         0.0835 
      6 C6         28.4040   -2.0745    1.0870 C.3       12 UNK        -0.0855 
      7 S7         29.5545   -2.7384   -0.1640 S.3       12 UNK        -0.2931 
      8 C8         29.2390   -1.6378   -1.5750 C.3       12 UNK         0.0378 
      9 C9         29.9025   -2.1724   -2.8336 C.ar      12 UNK        -0.0802 
     10 C10        31.0744   -1.5876   -3.3197 C.ar      12 UNK        -0.0944 
     11 C11        31.6916   -2.0862   -4.4706 C.ar      12 UNK        -0.0787 
     12 C12        31.1263   -3.1810   -5.1356 C.ar      12 UNK        -0.0862 
     13 C13        29.9487   -3.7702   -4.6627 C.ar      12 UNK        -0.0733 
     14 C14        29.3417   -3.2585   -3.5112 C.ar      12 UNK        -0.0832 
     15 C15        29.3581   -4.9869   -5.3659 C.3       12 UNK         0.0240 
     16 S16        28.4884   -4.5701   -6.9136 S.3       12 UNK        -0.2522 
     17 C17        27.0368   -3.6453   -6.3013 C.3       12 UNK        -0.0967 
     18 CA         26.7329   -2.3548   -7.1029 C.3       5 UNK         0.0660 
     19 N          25.4909   -1.7186   -6.6566 N.am      5 UNK        -0.4015 
     20 C          24.8405   -0.7558   -7.3277 C.2       4 UNK         0.4946 
     21 O          25.1829   -0.3364   -8.4321 O.2       4 UNK        -0.5353 
     22 CA         23.6262   -0.1182   -6.6316 C.3       4 UNK         0.0277 
     23 CB         22.3685   -0.9771   -6.8384 C.3       4 UNK        -0.1981 
     24 N          23.8466    0.1005   -5.2006 N.am      4 UNK        -0.4209 
     25 C          24.7672    0.9350   -4.6956 C.2       3 UNK         0.4942 
     26 O          25.4727    1.6701   -5.3846 O.2       3 UNK        -0.5208 
     27 CA         24.9694    0.9130   -3.1702 C.3       3 UNK         0.0250 
     28 CB         24.0776    1.9657   -2.4937 C.3       3 UNK        -0.1990 
     29 N          24.7324   -0.3986   -2.5556 N.am      3 UNK        -0.4232 
     30 C          25.3964   -1.5221   -2.8595 C.2       2 UNK         0.4993 
     31 O          26.2842   -1.5796   -3.7134 O.2       2 UNK        -0.5286 
     32 CA         24.9870   -2.7933   -2.0960 C.3       2 UNK         0.0209 
     33 CB         24.9649   -4.0234   -3.0206 C.3       2 UNK        -0.1931 
     34 N          25.8800   -3.0645   -0.9700 N.am      2 UNK        -0.4546 
     35 C          26.0118   -2.3206    0.1326 C.2       1 UNK         0.5154 
     36 O          25.3469   -1.3035    0.3375 O.2       1 UNK        -0.5181 
     37 C          27.8929   -1.3422   -7.0743 C.2       5 UNK         0.5014 
     38 O          28.6026   -1.2192   -8.0732 O.2       5 UNK        -0.5248 
     39 N          28.0151   -0.5960   -5.9648 N.am      6 UNK        -0.4434 
     40 CA         29.0048    0.4701   -5.7791 C.3       6 UNK         0.0363 
     41 CB         28.8351    1.0951   -4.3856 C.3       6 UNK        -0.1936 
     42 C          28.9364    1.5568   -6.8669 C.2       6 UNK         0.5081 
     43 O          29.9799    2.0009   -7.3497 O.2       6 UNK        -0.5248 
     44 N          27.7113    1.9465   -7.2443 N.am      7 UNK        -0.4718 
     45 CA         27.4319    2.8669   -8.3433 C.3       7 UNK         0.0273 
     46 CB         25.9697    3.3354   -8.2677 C.3       7 UNK        -0.1935 
     47 C          27.7432    2.2522   -9.7169 C.2       7 UNK         0.5018 
     48 O          28.4664    2.8729  -10.4958 O.2       7 UNK        -0.5186 
     49 N          27.2070    1.0524   -9.9914 N.am      8 UNK        -0.4240 
     50 CA         27.3426    0.3535  -11.2754 C.3       8 UNK         0.0235 
     51 CB         26.4512   -0.8984  -11.2904 C.3       8 UNK        -0.2000 
     52 C          28.7900   -0.0173  -11.6328 C.2       8 UNK         0.4941 
     53 O          29.1883    0.1570  -12.7852 O.2       8 UNK        -0.5273 
     54 N          29.5540   -0.5012  -10.6451 N.am      9 UNK        -0.4262 
     55 CA         30.9738   -0.8307  -10.7910 C.3       9 UNK         0.0264 
     56 CB         31.3393   -1.9270   -9.7777 C.3       9 UNK        -0.1955 
     57 C          31.9006    0.3942  -10.6579 C.2       9 UNK         0.5031 
     58 O          33.0974    0.2549  -10.9153 O.2       9 UNK        -0.5390 
     59 N          31.3451    1.5578  -10.2792 N.am      10 UNK        -0.4204 
     60 CA         32.0120    2.8505  -10.0785 C.3       10 UNK         0.0237 
     61 CB         32.4913    3.4311  -11.4259 C.3       10 UNK        -0.1985 
     62 C          33.1254    2.7770   -9.0165 C.2       10 UNK         0.4970 
     63 O          34.2600    3.1859   -9.2733 O.2       10 UNK        -0.4914 
     64 N          32.7702    2.2366   -7.8482 N.am      11 UNK        -0.4285 
     65 CA         33.6698    1.9694   -6.7167 C.3       11 UNK         0.1007 
     66 C          33.1185    2.4574   -5.3474 C.2       11 UNK         0.5703 
     67 N          31.9124    3.0078   -5.2702 N.am      11 UNK        -0.7361 
     68 O          33.8135    2.3664   -4.3383 O.2       11 UNK        -0.4986 
     69 C69        34.1292    0.4859   -6.6968 C.3       12 UNK        -0.0947 
     70 S70        32.7361   -0.6899   -6.6132 S.3       12 UNK        -0.2240 
     71 C71        32.9755   -1.4462   -4.9796 C.3       12 UNK         0.0194 
     72 H72        27.1438   -6.5825    2.4669 H         1 UNK         0.0906 
     73 H73        26.5401   -7.2882    0.9662 H         1 UNK         0.0906 
     74 H74        28.2782   -7.1361    1.2343 H         1 UNK         0.0906 
     75 H75        26.9142   -4.4260    2.4880 H         1 UNK         0.3140 
     76 H76        26.5893   -2.3732    2.1296 H         1 UNK         0.1085 
     77 H77        28.9173   -2.1522    2.0466 H         1 UNK         0.0836 
     78 H78        28.2766   -1.0020    0.9257 H         1 UNK         0.0836 
     79 H79        28.1676   -1.5466   -1.7458 H         1 UNK         0.0731 
     80 H80        29.6008   -0.6358   -1.3395 H         1 UNK         0.0731 
     81 H81        31.5083   -0.7454   -2.7981 H         1 UNK         0.1312 
     82 H82        31.6023   -3.5719   -6.0246 H         1 UNK         0.1406 
     83 H83        28.4386   -3.7118   -3.1248 H         1 UNK         0.1631 
     84 H84        28.6737   -5.5206   -4.7043 H         1 UNK         0.0717 
     85 H85        30.1608   -5.6885   -5.5972 H         1 UNK         0.0717 
     86 H86        26.1782   -4.3169   -6.3453 H         1 UNK         0.0934 
     87 H87        27.1750   -3.4108   -5.2479 H         1 UNK         0.0934 
     88 H88        26.5862   -2.6450   -8.1456 H         1 UNK         0.0739 
     89 H89        25.1936   -1.9368   -5.7164 H         1 UNK         0.3093 
     90 H90        23.4549    0.8558   -7.0955 H         1 UNK         0.0818 
     91 H91        21.4846   -0.4923   -6.4235 H         1 UNK         0.0819 
     92 H92        22.1782   -1.1376   -7.9007 H         1 UNK         0.0819 
     93 H93        22.4638   -1.9588   -6.3728 H         1 UNK         0.0819 
     94 H94        23.2958   -0.4505   -4.5586 H         1 UNK         0.3041 
     95 H95        26.0110    1.1752   -2.9767 H         1 UNK         0.0784 
     96 H96        24.2542    2.9559   -2.9167 H         1 UNK         0.0793 
     97 H97        23.0179    1.7410   -2.6206 H         1 UNK         0.0793 
     98 H98        24.2824    2.0314   -1.4249 H         1 UNK         0.0793 
     99 H99        24.0610   -0.4273   -1.8006 H         1 UNK         0.3024 
    100 H100       23.9774   -2.6519   -1.7041 H         1 UNK         0.1171 
    101 H101       24.5530   -4.8928   -2.5079 H         1 UNK         0.0786 
    102 H102       24.3477   -3.8450   -3.9020 H         1 UNK         0.0786 
    103 H103       25.9645   -4.2884   -3.3655 H         1 UNK         0.0786 
    104 H104       26.4775   -3.8892   -1.0314 H         1 UNK         0.2977 
    105 H105       27.3998   -0.7951   -5.1811 H         1 UNK         0.3127 
    106 H106       29.9883    0.0019   -5.8304 H         1 UNK         0.0770 
    107 H107       27.9426    1.7172   -4.3257 H         1 UNK         0.0814 
    108 H108       29.6871    1.7276   -4.1387 H         1 UNK         0.0814 
    109 H109       28.7609    0.3348   -3.6106 H         1 UNK         0.0814 
    110 H110       26.9100    1.5870   -6.7329 H         1 UNK         0.2983 
    111 H111       28.0738    3.7421   -8.2195 H         1 UNK         0.0947 
    112 H112       25.7385    4.0297   -9.0766 H         1 UNK         0.0806 
    113 H113       25.7695    3.8521   -7.3288 H         1 UNK         0.0806 
    114 H114       25.2714    2.5008   -8.3415 H         1 UNK         0.0806 
    115 H115       26.6119    0.6058   -9.2969 H         1 UNK         0.3000 
    116 H116       26.9816    1.0319  -12.0513 H         1 UNK         0.0850 
    117 H117       26.5375   -1.4311  -12.2384 H         1 UNK         0.0810 
    118 H118       25.4006   -0.6378  -11.1609 H         1 UNK         0.0810 
    119 H119       26.7236   -1.5950  -10.4966 H         1 UNK         0.0810 
    120 H120       29.1443   -0.6518   -9.7220 H         1 UNK         0.3040 
    121 H121       31.1395   -1.2404  -11.7896 H         1 UNK         0.0766 
    122 H122       31.1198   -1.6160   -8.7577 H         1 UNK         0.0812 
    123 H123       32.4003   -2.1758   -9.8244 H         1 UNK         0.0812 
    124 H124       30.7808   -2.8433   -9.9686 H         1 UNK         0.0812 
    125 H125       30.3494    1.5605  -10.0976 H         1 UNK         0.3205 
    126 H126       31.2527    3.5257   -9.6806 H         1 UNK         0.0754 
    127 H127       32.8976    4.4349  -11.2961 H         1 UNK         0.0769 
    128 H128       31.6693    3.5040  -12.1383 H         1 UNK         0.0769 
    129 H129       33.2730    2.8191  -11.8772 H         1 UNK         0.0769 
    130 H130       31.8008    1.9566   -7.7140 H         1 UNK         0.2981 
    131 H131       34.5697    2.5714   -6.8525 H         1 UNK         0.0541 
    132 H132       31.3081    3.0429   -6.0797 H         1 UNK         0.3459 
    133 H133       31.5861    3.3450   -4.3795 H         1 UNK         0.3459 
    134 H134       34.8284    0.3039   -5.8790 H         1 UNK         0.0612 
    135 H135       34.6850    0.2688   -7.6101 H         1 UNK         0.0612 
    136 H136       33.3233   -0.6852   -4.2791 H         1 UNK         0.0624 
    137 H137       33.7628   -2.1984   -5.0420 H         1 UNK         0.0624 
@<TRIPOS>BOND
     1    1    2 1    
     2    1   72 1    
     3    1   73 1    
     4    1   74 1    
     5    2    3 2    
     6    2    4 am   BACKBONE|DICT|INTERRES
     7    4    5 1    
     8    4   75 1    
     9    5    6 1    
    10    5   35 1    
    11    5   76 1    
    12    6    7 1    
    13    6   77 1    
    14    6   78 1    
    15    7    8 1    
    16    8    9 1    
    17    8   79 1    
    18    8   80 1    
    19    9   10 ar   
    20    9   14 ar   
    21   10   11 ar   
    22   10   81 1    
    23   11   12 ar   
    24   11   71 1    
    25   12   13 ar   
    26   12   82 1    
    27   13   14 ar   
    28   13   15 1    
    29   14   83 1    
    30   15   16 1    
    31   15   84 1    
    32   15   85 1    
    33   16   17 1    
    34   17   18 1    
    35   17   86 1    
    36   17   87 1    
    37   18   19 1    
    38   18   37 1    
    39   18   88 1    
    40   19   20 am   BACKBONE|DICT|INTERRES
    41   19   89 1    
    42   20   21 2    
    43   20   22 1    
    44   22   23 1    
    45   22   24 1    
    46   22   90 1    
    47   23   91 1    
    48   23   92 1    
    49   23   93 1    
    50   24   25 am   BACKBONE|DICT|INTERRES
    51   24   94 1    
    52   25   26 2    
    53   25   27 1    
    54   27   28 1    
    55   27   29 1    
    56   27   95 1    
    57   28   96 1    
    58   28   97 1    
    59   28   98 1    
    60   29   30 am   BACKBONE|DICT|INTERRES
    61   29   99 1    
    62   30   31 2    
    63   30   32 1    
    64   32   33 1    
    65   32   34 1    
    66   32  100 1    
    67   33  101 1    
    68   33  102 1    
    69   33  103 1    
    70   34   35 am   BACKBONE|DICT|INTERRES
    71   34  104 1    
    72   35   36 2    
    73   37   38 2    
    74   37   39 am   BACKBONE|DICT|INTERRES
    75   39   40 1    
    76   39  105 1    
    77   40   41 1    
    78   40   42 1    
    79   40  106 1    
    80   41  107 1    
    81   41  108 1    
    82   41  109 1    
    83   42   43 2    
    84   42   44 am   BACKBONE|DICT|INTERRES
    85   44   45 1    
    86   44  110 1    
    87   45   46 1    
    88   45   47 1    
    89   45  111 1    
    90   46  112 1    
    91   46  113 1    
    92   46  114 1    
    93   47   48 2    
    94   47   49 am   BACKBONE|DICT|INTERRES
    95   49   50 1    
    96   49  115 1    
    97   50   51 1    
    98   50   52 1    
    99   50  116 1    
   100   51  117 1    
   101   51  118 1    
   102   51  119 1    
   103   52   53 2    
   104   52   54 am   BACKBONE|DICT|INTERRES
   105   54   55 1    
   106   54  120 1    
   107   55   56 1    
   108   55   57 1    
   109   55  121 1    
   110   56  122 1    
   111   56  123 1    
   112   56  124 1    
   113   57   58 2    
   114   57   59 am   BACKBONE|DICT|INTERRES
   115   59   60 1    
   116   59  125 1    
   117   60   61 1    
   118   60   62 1    
   119   60  126 1    
   120   61  127 1    
   121   61  128 1    
   122   61  129 1    
   123   62   63 2    
   124   62   64 am   BACKBONE|DICT|INTERRES
   125   64   65 1    
   126   64  130 1    
   127   65   66 1    
   128   65   69 1    
   129   65  131 1    
   130   66   67 am   BACKBONE|DICT|INTERRES
   131   66   68 2    
   132   67  132 1    
   133   67  133 1    
   134   69   70 1    
   135   69  134 1    
   136   69  135 1    
   137   70   71 1    
   138   71  136 1    
   139   71  137 1    
@<TRIPOS>SUBSTRUCTURE
     1 UNK         1 GROUP             0       ****    0 ROOT    
