@<TRIPOS>MOLECULE
3R137
137   139    1
SMALL
USER_CHARGES


@<TRIPOS>ATOM
      1 CA         30.7806   -5.3162   -5.2157 C.3       0 UNK        -0.2020 
      2 C          29.5510   -5.6354   -4.3832 C.2       0 UNK         0.4855 
      3 O          29.1100   -6.7845   -4.3496 O.2       0 UNK        -0.5197 
      4 N          28.9956   -4.6247   -3.7096 N.am      1 UNK        -0.4892 
      5 CA         27.7994   -4.7231   -2.8769 C.3       1 UNK         0.0835 
      6 C6         28.0956   -5.3444   -1.4802 C.3       12 UNK        -0.0855 
      7 S7         28.7994   -4.2360   -0.2070 S.3       12 UNK        -0.2931 
      8 C8         30.5315   -4.0239   -0.7513 C.3       12 UNK         0.0378 
      9 C9         30.8520   -2.6358   -1.3123 C.ar      12 UNK        -0.0802 
     10 C10        31.8627   -2.4989   -2.2713 C.ar      12 UNK        -0.0944 
     11 C11        32.2374   -1.2347   -2.7400 C.ar      12 UNK        -0.0787 
     12 C12        31.5900   -0.0994   -2.2477 C.ar      12 UNK        -0.0862 
     13 C13        30.5631   -0.2168   -1.3091 C.ar      12 UNK        -0.0733 
     14 C14        30.2078   -1.4843   -0.8383 C.ar      12 UNK        -0.0832 
     15 C15        29.8433    1.0236   -0.7914 C.3       12 UNK         0.0240 
     16 S16        29.1582    2.0643   -2.1253 S.3       12 UNK        -0.2522 
     17 C17        28.0119    0.9152   -2.9569 C.3       12 UNK        -0.0967 
     18 CA         27.9871    1.1210   -4.4941 C.3       5 UNK         0.0660 
     19 N          27.6298   -0.1099   -5.2019 N.am      5 UNK        -0.4015 
     20 C          27.6182   -0.2744   -6.5326 C.2       4 UNK         0.4946 
     21 O          27.9906    0.5735   -7.3420 O.2       4 UNK        -0.5353 
     22 CA         27.0458   -1.5985   -7.0581 C.3       4 UNK         0.0277 
     23 CB         28.1220   -2.6964   -7.0650 C.3       4 UNK        -0.1981 
     24 N          25.8747   -2.0338   -6.2930 N.am      4 UNK        -0.4209 
     25 C          24.6993   -1.3855   -6.2839 C.2       3 UNK         0.4942 
     26 O          24.4644   -0.3799   -6.9532 O.2       3 UNK        -0.5208 
     27 CA         23.6202   -1.9217   -5.3295 C.3       3 UNK         0.0250 
     28 CB         22.9069   -3.1389   -5.9393 C.3       3 UNK        -0.1990 
     29 N          24.1583   -2.2696   -4.0120 N.am      3 UNK        -0.4232 
     30 C          24.6862   -1.3848   -3.1539 C.2       2 UNK         0.4993 
     31 O          24.7441   -0.1738   -3.3647 O.2       2 UNK        -0.5286 
     32 CA         25.3034   -1.9531   -1.8662 C.3       2 UNK         0.0209 
     33 CB         24.2271   -2.1437   -0.7861 C.3       2 UNK        -0.1931 
     34 N          26.0329   -3.2113   -2.0655 N.am      2 UNK        -0.4546 
     35 C          27.1058   -3.3474   -2.8580 C.2       1 UNK         0.5154 
     36 O          27.5400   -2.4371   -3.5708 O.2       1 UNK        -0.5181 
     37 C          27.0656    2.2930   -4.8898 C.2       5 UNK         0.5014 
     38 O          27.5624    3.3479   -5.2866 O.2       5 UNK        -0.5248 
     39 N          25.7439    2.0746   -4.8044 N.am      6 UNK        -0.4434 
     40 CA         24.7053    3.0493   -5.1493 C.3       6 UNK         0.0363 
     41 CB         23.3278    2.4939   -4.7539 C.3       6 UNK        -0.1936 
     42 C          24.7174    3.4574   -6.6317 C.2       6 UNK         0.5081 
     43 O          24.5529    4.6395   -6.9343 O.2       6 UNK        -0.5248 
     44 N          24.9279    2.4828   -7.5263 N.am      7 UNK        -0.4718 
     45 CA         25.0525    2.7014   -8.9702 C.3       7 UNK         0.0273 
     46 CB         24.8394    1.3612   -9.6931 C.3       7 UNK        -0.1935 
     47 C          26.4009    3.3166   -9.3894 C.2       7 UNK         0.5018 
     48 O          26.4992    3.8185  -10.5099 O.2       7 UNK        -0.5186 
     49 N          27.4129    3.2287   -8.5115 N.am      8 UNK        -0.4240 
     50 CA         28.8329    3.5243   -8.7442 C.3       8 UNK         0.0235 
     51 CB         29.0578    5.0300   -8.9949 C.3       8 UNK        -0.2000 
     52 C          29.4352    2.6280   -9.8457 C.2       8 UNK         0.4941 
     53 O          30.2769    3.0752  -10.6279 O.2       8 UNK        -0.5273 
     54 N          28.9924    1.3649   -9.8906 N.am      9 UNK        -0.4262 
     55 CA         29.3057    0.3804  -10.9273 C.3       9 UNK         0.0264 
     56 CB         28.1330   -0.6120  -11.0363 C.3       9 UNK        -0.1955 
     57 C          30.6508   -0.3184  -10.6649 C.2       9 UNK         0.5031 
     58 O          30.7047   -1.5491  -10.6115 O.2       9 UNK        -0.5390 
     59 N          31.7078    0.4827  -10.4710 N.am      10 UNK        -0.4204 
     60 CA         33.1095    0.1326  -10.1858 C.3       10 UNK         0.0237 
     61 CB         33.7353   -0.6542  -11.3542 C.3       10 UNK        -0.1985 
     62 C          33.3562   -0.5903   -8.8457 C.2       10 UNK         0.4970 
     63 O          34.3504   -0.2832   -8.1895 O.2       10 UNK        -0.4914 
     64 N          32.4713   -1.5294   -8.4881 N.am      11 UNK        -0.4285 
     65 CA         32.4185   -2.3604   -7.2719 C.3       11 UNK         0.1007 
     66 C          33.6734   -3.2292   -6.9469 C.2       11 UNK         0.5703 
     67 N          34.6356   -3.3748   -7.8491 N.am      11 UNK        -0.7361 
     68 O          33.7529   -3.8339   -5.8812 O.2       11 UNK        -0.4986 
     69 C69        31.7935   -1.6250   -6.0481 C.3       12 UNK        -0.0947 
     70 S70        32.8138   -0.3085   -5.3039 S.3       12 UNK        -0.2240 
     71 C71        33.3670   -1.0822   -3.7494 C.3       12 UNK         0.0194 
     72 H72        31.3498   -6.2215   -5.4256 H         1 UNK         0.0906 
     73 H73        30.4904   -4.8681   -6.1651 H         1 UNK         0.0906 
     74 H74        31.4378   -4.6281   -4.6863 H         1 UNK         0.0906 
     75 H75        29.3405   -3.6767   -3.8019 H         1 UNK         0.3140 
     76 H76        27.1014   -5.3863   -3.3932 H         1 UNK         0.1085 
     77 H77        28.7435   -6.2164   -1.5815 H         1 UNK         0.0836 
     78 H78        27.1667   -5.7406   -1.0672 H         1 UNK         0.0836 
     79 H79        30.7833   -4.7971   -1.4784 H         1 UNK         0.0731 
     80 H80        31.1800   -4.1956    0.1085 H         1 UNK         0.0731 
     81 H81        32.3793   -3.3767   -2.6353 H         1 UNK         0.1312 
     82 H82        31.8790    0.8792   -2.6066 H         1 UNK         0.1406 
     83 H83        29.4336   -1.5687   -0.0887 H         1 UNK         0.1631 
     84 H84        30.5450    1.6191   -0.2061 H         1 UNK         0.0717 
     85 H85        29.0323    0.7494   -0.1148 H         1 UNK         0.0717 
     86 H86        28.3293   -0.1024   -2.7323 H         1 UNK         0.0934 
     87 H87        27.0209    1.0132   -2.5104 H         1 UNK         0.0934 
     88 H88        28.9977    1.3687   -4.8271 H         1 UNK         0.0739 
     89 H89        27.3769   -0.9046   -4.6193 H         1 UNK         0.3093 
     90 H90        26.7219   -1.4331   -8.0874 H         1 UNK         0.0818 
     91 H91        28.9671   -2.4045   -7.6903 H         1 UNK         0.0819 
     92 H92        28.5095   -2.8929   -6.0656 H         1 UNK         0.0819 
     93 H93        27.7333   -3.6325   -7.4658 H         1 UNK         0.0819 
     94 H94        25.9955   -2.8279   -5.6823 H         1 UNK         0.3041 
     95 H95        22.8817   -1.1292   -5.1896 H         1 UNK         0.0784 
     96 H96        22.4872   -2.8943   -6.9162 H         1 UNK         0.0793 
     97 H97        23.5847   -3.9822   -6.0779 H         1 UNK         0.0793 
     98 H98        22.0817   -3.4713   -5.3091 H         1 UNK         0.0793 
     99 H99        24.1500   -3.2449   -3.7515 H         1 UNK         0.3024 
    100 H100       26.0216   -1.2146   -1.5029 H         1 UNK         0.1171 
    101 H101       24.6686   -2.4432    0.1647 H         1 UNK         0.0786 
    102 H102       23.6833   -1.2144   -0.6094 H         1 UNK         0.0786 
    103 H103       23.4953   -2.9007   -1.0707 H         1 UNK         0.0786 
    104 H104       25.7408   -3.9969   -1.5021 H         1 UNK         0.2977 
    105 H105       25.4181    1.1855   -4.4270 H         1 UNK         0.3127 
    106 H106       24.8918    3.9490   -4.5592 H         1 UNK         0.0770 
    107 H107       23.1010    1.5669   -5.2822 H         1 UNK         0.0814 
    108 H108       22.5360    3.2068   -4.9874 H         1 UNK         0.0814 
    109 H109       23.2754    2.2891   -3.6844 H         1 UNK         0.0814 
    110 H110       24.9830    1.5201   -7.2031 H         1 UNK         0.2983 
    111 H111       24.2670    3.3912   -9.2866 H         1 UNK         0.0947 
    112 H112       24.9061    1.4816  -10.7752 H         1 UNK         0.0806 
    113 H113       23.8564    0.9443   -9.4733 H         1 UNK         0.0806 
    114 H114       25.5873    0.6240   -9.3981 H         1 UNK         0.0806 
    115 H115       27.2155    2.7728   -7.6287 H         1 UNK         0.3000 
    116 H116       29.3501    3.2598   -7.8204 H         1 UNK         0.0850 
    117 H117       30.1224    5.2642   -9.0312 H         1 UNK         0.0810 
    118 H118       28.6206    5.6327   -8.1987 H         1 UNK         0.0810 
    119 H119       28.6225    5.3544   -9.9404 H         1 UNK         0.0810 
    120 H120       28.4162    1.0468   -9.1136 H         1 UNK         0.3040 
    121 H121       29.3938    0.8947  -11.8867 H         1 UNK         0.0766 
    122 H122       27.1979   -0.0986  -11.2596 H         1 UNK         0.0812 
    123 H123       27.9971   -1.1767  -10.1138 H         1 UNK         0.0812 
    124 H124       28.3035   -1.3325  -11.8373 H         1 UNK         0.0812 
    125 H125       31.5114    1.4794  -10.5131 H         1 UNK         0.3205 
    126 H126       33.6350    1.0868  -10.1191 H         1 UNK         0.0754 
    127 H127       34.7981   -0.8293  -11.1811 H         1 UNK         0.0769 
    128 H128       33.6471   -0.1061  -12.2923 H         1 UNK         0.0769 
    129 H129       33.2645   -1.6284  -11.4905 H         1 UNK         0.0769 
    130 H130       31.7333   -1.7113   -9.1665 H         1 UNK         0.2981 
    131 H131       31.6835   -3.1181   -7.5439 H         1 UNK         0.0541 
    132 H132       34.5930   -2.8781   -8.7239 H         1 UNK         0.3459 
    133 H133       35.4299   -3.9555   -7.6326 H         1 UNK         0.3459 
    134 H134       30.8507   -1.1657   -6.3484 H         1 UNK         0.0612 
    135 H135       31.5215   -2.3438   -5.2757 H         1 UNK         0.0612 
    136 H136       33.8346   -2.0429   -3.9647 H         1 UNK         0.0624 
    137 H137       34.1458   -0.4573   -3.3106 H         1 UNK         0.0624 
@<TRIPOS>BOND
     1    1    2 1    
     2    1   72 1    
     3    1   73 1    
     4    1   74 1    
     5    2    3 2    
     6    2    4 am   BACKBONE|DICT|INTERRES
     7    4    5 1    
     8    4   75 1    
     9    5    6 1    
    10    5   35 1    
    11    5   76 1    
    12    6    7 1    
    13    6   77 1    
    14    6   78 1    
    15    7    8 1    
    16    8    9 1    
    17    8   79 1    
    18    8   80 1    
    19    9   10 ar   
    20    9   14 ar   
    21   10   11 ar   
    22   10   81 1    
    23   11   12 ar   
    24   11   71 1    
    25   12   13 ar   
    26   12   82 1    
    27   13   14 ar   
    28   13   15 1    
    29   14   83 1    
    30   15   16 1    
    31   15   84 1    
    32   15   85 1    
    33   16   17 1    
    34   17   18 1    
    35   17   86 1    
    36   17   87 1    
    37   18   19 1    
    38   18   37 1    
    39   18   88 1    
    40   19   20 am   BACKBONE|DICT|INTERRES
    41   19   89 1    
    42   20   21 2    
    43   20   22 1    
    44   22   23 1    
    45   22   24 1    
    46   22   90 1    
    47   23   91 1    
    48   23   92 1    
    49   23   93 1    
    50   24   25 am   BACKBONE|DICT|INTERRES
    51   24   94 1    
    52   25   26 2    
    53   25   27 1    
    54   27   28 1    
    55   27   29 1    
    56   27   95 1    
    57   28   96 1    
    58   28   97 1    
    59   28   98 1    
    60   29   30 am   BACKBONE|DICT|INTERRES
    61   29   99 1    
    62   30   31 2    
    63   30   32 1    
    64   32   33 1    
    65   32   34 1    
    66   32  100 1    
    67   33  101 1    
    68   33  102 1    
    69   33  103 1    
    70   34   35 am   BACKBONE|DICT|INTERRES
    71   34  104 1    
    72   35   36 2    
    73   37   38 2    
    74   37   39 am   BACKBONE|DICT|INTERRES
    75   39   40 1    
    76   39  105 1    
    77   40   41 1    
    78   40   42 1    
    79   40  106 1    
    80   41  107 1    
    81   41  108 1    
    82   41  109 1    
    83   42   43 2    
    84   42   44 am   BACKBONE|DICT|INTERRES
    85   44   45 1    
    86   44  110 1    
    87   45   46 1    
    88   45   47 1    
    89   45  111 1    
    90   46  112 1    
    91   46  113 1    
    92   46  114 1    
    93   47   48 2    
    94   47   49 am   BACKBONE|DICT|INTERRES
    95   49   50 1    
    96   49  115 1    
    97   50   51 1    
    98   50   52 1    
    99   50  116 1    
   100   51  117 1    
   101   51  118 1    
   102   51  119 1    
   103   52   53 2    
   104   52   54 am   BACKBONE|DICT|INTERRES
   105   54   55 1    
   106   54  120 1    
   107   55   56 1    
   108   55   57 1    
   109   55  121 1    
   110   56  122 1    
   111   56  123 1    
   112   56  124 1    
   113   57   58 2    
   114   57   59 am   BACKBONE|DICT|INTERRES
   115   59   60 1    
   116   59  125 1    
   117   60   61 1    
   118   60   62 1    
   119   60  126 1    
   120   61  127 1    
   121   61  128 1    
   122   61  129 1    
   123   62   63 2    
   124   62   64 am   BACKBONE|DICT|INTERRES
   125   64   65 1    
   126   64  130 1    
   127   65   66 1    
   128   65   69 1    
   129   65  131 1    
   130   66   67 am   BACKBONE|DICT|INTERRES
   131   66   68 2    
   132   67  132 1    
   133   67  133 1    
   134   69   70 1    
   135   69  134 1    
   136   69  135 1    
   137   70   71 1    
   138   71  136 1    
   139   71  137 1    
@<TRIPOS>SUBSTRUCTURE
     1 UNK         1 GROUP             0       ****    0 ROOT    
