@<TRIPOS>MOLECULE
3R137
137   139    1
SMALL
USER_CHARGES


@<TRIPOS>ATOM
      1 CA         29.8053    1.2099   -3.9351 C.3       0 UNK        -0.2020 
      2 C          29.0477    0.0773   -3.2595 C.2       0 UNK         0.4855 
      3 O          27.9655   -0.2936   -3.7104 O.2       0 UNK        -0.5197 
      4 N          29.5994   -0.4772   -2.1742 N.am      1 UNK        -0.4892 
      5 CA         28.9583   -1.5248   -1.3728 C.3       1 UNK         0.0835 
      6 C6         29.9286   -2.1703   -0.3510 C.3       12 UNK        -0.0855 
      7 S7         31.5201   -2.7110   -1.0655 S.3       12 UNK        -0.2931 
      8 C8         31.1775   -4.4317   -1.5530 C.3       12 UNK         0.0378 
      9 C9         30.6411   -4.5223   -2.9749 C.ar      12 UNK        -0.0802 
     10 C10        31.5015   -4.3052   -4.0555 C.ar      12 UNK        -0.0944 
     11 C11        31.0374   -4.4240   -5.3679 C.ar      12 UNK        -0.0787 
     12 C12        29.7077   -4.7846   -5.5941 C.ar      12 UNK        -0.0862 
     13 C13        28.8187   -4.9561   -4.5257 C.ar      12 UNK        -0.0733 
     14 C14        29.3003   -4.8398   -3.2165 C.ar      12 UNK        -0.0832 
     15 C15        27.3386   -5.2671   -4.7556 C.3       12 UNK         0.0240 
     16 S16        26.6225   -4.5327   -6.2712 S.3       12 UNK        -0.2522 
     17 C17        27.0748   -2.7751   -6.0816 C.3       12 UNK        -0.0967 
     18 CA         26.2972   -1.8497   -7.0462 C.3       5 UNK         0.0660 
     19 N          24.8540   -1.9256   -6.8049 N.am      5 UNK        -0.4015 
     20 C          23.8843   -1.1747   -7.3467 C.2       4 UNK         0.4946 
     21 O          24.0599   -0.3960   -8.2851 O.2       4 UNK        -0.5353 
     22 CA         22.4977   -1.2479   -6.6712 C.3       4 UNK         0.0277 
     23 CB         21.5136   -2.0336   -7.5529 C.3       4 UNK        -0.1981 
     24 N          22.5026   -1.8274   -5.3164 N.am      4 UNK        -0.4209 
     25 C          23.2243   -1.3900   -4.2716 C.2       3 UNK         0.4942 
     26 O          23.9519   -0.3929   -4.3129 O.2       3 UNK        -0.5208 
     27 CA         23.1893   -2.2583   -3.0051 C.3       3 UNK         0.0250 
     28 CB         23.4977   -3.7404   -3.3173 C.3       3 UNK        -0.1990 
     29 N          24.1708   -1.7411   -2.0538 N.am      3 UNK        -0.4232 
     30 C          24.1943   -1.9877   -0.7396 C.2       2 UNK         0.4993 
     31 O          23.3634   -2.6906   -0.1612 O.2       2 UNK        -0.5286 
     32 CA         25.3680   -1.3785    0.0410 C.3       2 UNK         0.0209 
     33 CB         25.3993   -1.7989    1.5250 C.3       2 UNK        -0.1931 
     34 N          26.6297   -1.7452   -0.6062 N.am      2 UNK        -0.4546 
     35 C          27.7159   -0.9652   -0.6443 C.2       1 UNK         0.5154 
     36 O          27.7747    0.1459   -0.1097 O.2       1 UNK        -0.5181 
     37 C          26.8733   -0.4203   -6.9488 C.2       5 UNK         0.5014 
     38 O          27.8656   -0.1412   -7.6182 O.2       5 UNK        -0.5248 
     39 N          26.2340    0.4685   -6.1703 N.am      6 UNK        -0.4434 
     40 CA         26.5933    1.8816   -6.0156 C.3       6 UNK         0.0363 
     41 CB         25.6587    2.5235   -4.9786 C.3       6 UNK        -0.1936 
     42 C          26.6009    2.6964   -7.3241 C.2       6 UNK         0.5081 
     43 O          27.2355    3.7507   -7.3670 O.2       6 UNK        -0.5248 
     44 N          25.9267    2.1983   -8.3711 N.am      7 UNK        -0.4718 
     45 CA         25.9896    2.7401   -9.7293 C.3       7 UNK         0.0273 
     46 CB         24.8527    2.1286  -10.5634 C.3       7 UNK        -0.1935 
     47 C          27.3483    2.5123  -10.4238 C.2       7 UNK         0.5018 
     48 O          27.6673    3.2563  -11.3526 O.2       7 UNK        -0.5186 
     49 N          28.1195    1.5050   -9.9880 N.am      8 UNK        -0.4240 
     50 CA         29.4452    1.1900  -10.5129 C.3       8 UNK         0.0235 
     51 CB         29.6270   -0.3380  -10.5681 C.3       8 UNK        -0.2000 
     52 C          30.5008    1.8413   -9.6126 C.2       8 UNK         0.4941 
     53 O          30.7379    1.3624   -8.5023 O.2       8 UNK        -0.5273 
     54 N          31.1417    2.9073  -10.1123 N.am      9 UNK        -0.4262 
     55 CA         32.1903    3.6610   -9.4099 C.3       9 UNK         0.0264 
     56 CB         32.6214    4.8596  -10.2702 C.3       9 UNK        -0.1955 
     57 C          33.4155    2.8161   -9.0100 C.2       9 UNK         0.5031 
     58 O          34.0553    3.1191   -8.0021 O.2       9 UNK        -0.5390 
     59 N          33.6900    1.7488   -9.7744 N.am      10 UNK        -0.4204 
     60 CA         34.7293    0.7511   -9.5069 C.3       10 UNK         0.0237 
     61 CB         34.7944   -0.2345  -10.6852 C.3       10 UNK        -0.1985 
     62 C          34.5479   -0.0125   -8.1803 C.2       10 UNK         0.4970 
     63 O          35.5452   -0.4773   -7.6268 O.2       10 UNK        -0.4914 
     64 N          33.3055   -0.1202   -7.6885 N.am      11 UNK        -0.4285 
     65 CA         32.9865   -0.6962   -6.3735 C.3       11 UNK         0.1007 
     66 C          33.1795    0.2987   -5.1916 C.2       11 UNK         0.5703 
     67 N          33.4949    1.5699   -5.4187 N.am      11 UNK        -0.7361 
     68 O          33.0598   -0.0966   -4.0351 O.2       11 UNK        -0.4986 
     69 C69        31.5768   -1.3431   -6.3529 C.3       12 UNK        -0.0947 
     70 S70        31.4203   -2.7201   -7.5411 S.3       12 UNK        -0.2240 
     71 C71        31.9647   -4.1488   -6.5441 C.3       12 UNK         0.0194 
     72 H72        29.9324    0.9997   -4.9968 H         1 UNK         0.0906 
     73 H73        29.2498    2.1417   -3.8354 H         1 UNK         0.0906 
     74 H74        30.7909    1.3577   -3.4953 H         1 UNK         0.0906 
     75 H75        30.4974   -0.1577   -1.8400 H         1 UNK         0.3140 
     76 H76        28.6293   -2.3002   -2.0672 H         1 UNK         0.1085 
     77 H77        30.1657   -1.4583    0.4425 H         1 UNK         0.0836 
     78 H78        29.4517   -3.0169    0.1464 H         1 UNK         0.0836 
     79 H79        32.1075   -4.9990   -1.4925 H         1 UNK         0.0731 
     80 H80        30.4956   -4.8997   -0.8416 H         1 UNK         0.0731 
     81 H81        32.5327   -4.0369   -3.8699 H         1 UNK         0.1312 
     82 H82        29.3596   -4.8850   -6.6127 H         1 UNK         0.1406 
     83 H83        28.6304   -4.9989   -2.3824 H         1 UNK         0.1631 
     84 H84        26.7498   -4.9229   -3.9042 H         1 UNK         0.0717 
     85 H85        27.2130   -6.3495   -4.8009 H         1 UNK         0.0717 
     86 H86        26.9116   -2.4755   -5.0439 H         1 UNK         0.0934 
     87 H87        28.1478   -2.6773   -6.2582 H         1 UNK         0.0934 
     88 H88        26.4660   -2.1900   -8.0698 H         1 UNK         0.0739 
     89 H89        24.5834   -2.5556   -6.0660 H         1 UNK         0.3093 
     90 H90        22.1362   -0.2214   -6.5828 H         1 UNK         0.0818 
     91 H91        20.5033   -2.0060   -7.1444 H         1 UNK         0.0819 
     92 H92        21.4649   -1.6096   -8.5571 H         1 UNK         0.0819 
     93 H93        21.8083   -3.0788   -7.6552 H         1 UNK         0.0819 
     94 H94        21.9313   -2.6504   -5.1874 H         1 UNK         0.3041 
     95 H95        22.1914   -2.1725   -2.5700 H         1 UNK         0.0784 
     96 H96        23.5155   -4.3447   -2.4102 H         1 UNK         0.0793 
     97 H97        22.7437   -4.1832   -3.9684 H         1 UNK         0.0793 
     98 H98        24.4650   -3.8546   -3.8077 H         1 UNK         0.0793 
     99 H99        24.8423   -1.0996   -2.4607 H         1 UNK         0.3024 
    100 H100       25.2322   -0.2950   -0.0038 H         1 UNK         0.1171 
    101 H101       25.5289   -2.8762    1.6351 H         1 UNK         0.0786 
    102 H102       24.4713   -1.5263    2.0294 H         1 UNK         0.0786 
    103 H103       26.2121   -1.3073    2.0599 H         1 UNK         0.0786 
    104 H104       26.6376   -2.6399   -1.0769 H         1 UNK         0.2977 
    105 H105       25.4453    0.1471   -5.6176 H         1 UNK         0.3127 
    106 H106       27.6107    1.9112   -5.6256 H         1 UNK         0.0770 
    107 H107       24.6165    2.4820   -5.2974 H         1 UNK         0.0814 
    108 H108       25.9122    3.5720   -4.8163 H         1 UNK         0.0814 
    109 H109       25.7347    2.0188   -4.0150 H         1 UNK         0.0814 
    110 H110       25.4135    1.3315   -8.2500 H         1 UNK         0.2983 
    111 H111       25.8306    3.8193   -9.6727 H         1 UNK         0.0947 
    112 H112       24.8471    2.5349  -11.5758 H         1 UNK         0.0806 
    113 H113       23.8783    2.3414  -10.1234 H         1 UNK         0.0806 
    114 H114       24.9523    1.0453  -10.6460 H         1 UNK         0.0806 
    115 H115       27.8443    0.9836   -9.1580 H         1 UNK         0.3000 
    116 H116       29.5516    1.5715  -11.5307 H         1 UNK         0.0850 
    117 H117       29.5492   -0.7958   -9.5809 H         1 UNK         0.0810 
    118 H118       28.8787   -0.8026  -11.2100 H         1 UNK         0.0810 
    119 H119       30.6074   -0.5996  -10.9680 H         1 UNK         0.0810 
    120 H120       30.8734    3.2496  -11.0246 H         1 UNK         0.3040 
    121 H121       31.7503    4.0436   -8.4865 H         1 UNK         0.0766 
    122 H122       31.7822    5.5246  -10.4749 H         1 UNK         0.0812 
    123 H123       33.0412    4.5422  -11.2256 H         1 UNK         0.0812 
    124 H124       33.3832    5.4515   -9.7604 H         1 UNK         0.0812 
    125 H125       33.1060    1.5880  -10.5817 H         1 UNK         0.3205 
    126 H126       35.6828    1.2801   -9.4477 H         1 UNK         0.0754 
    127 H127       35.5815   -0.9744  -10.5322 H         1 UNK         0.0769 
    128 H128       35.0137    0.2783  -11.6220 H         1 UNK         0.0769 
    129 H129       33.8566   -0.7781  -10.8089 H         1 UNK         0.0769 
    130 H130       32.5287    0.3168   -8.1721 H         1 UNK         0.2981 
    131 H131       33.6989   -1.4997   -6.1786 H         1 UNK         0.0541 
    132 H132       33.6262    2.1869   -4.6337 H         1 UNK         0.3459 
    133 H133       33.6261    1.9224   -6.3593 H         1 UNK         0.3459 
    134 H134       30.8163   -0.6014   -6.6019 H         1 UNK         0.0612 
    135 H135       31.3228   -1.7037   -5.3552 H         1 UNK         0.0612 
    136 H136       31.9980   -5.0311   -7.1844 H         1 UNK         0.0624 
    137 H137       32.9869   -3.9756   -6.2044 H         1 UNK         0.0624 
@<TRIPOS>BOND
     1    1    2 1    
     2    1   72 1    
     3    1   73 1    
     4    1   74 1    
     5    2    3 2    
     6    2    4 am   BACKBONE|DICT|INTERRES
     7    4    5 1    
     8    4   75 1    
     9    5    6 1    
    10    5   35 1    
    11    5   76 1    
    12    6    7 1    
    13    6   77 1    
    14    6   78 1    
    15    7    8 1    
    16    8    9 1    
    17    8   79 1    
    18    8   80 1    
    19    9   10 ar   
    20    9   14 ar   
    21   10   11 ar   
    22   10   81 1    
    23   11   12 ar   
    24   11   71 1    
    25   12   13 ar   
    26   12   82 1    
    27   13   14 ar   
    28   13   15 1    
    29   14   83 1    
    30   15   16 1    
    31   15   84 1    
    32   15   85 1    
    33   16   17 1    
    34   17   18 1    
    35   17   86 1    
    36   17   87 1    
    37   18   19 1    
    38   18   37 1    
    39   18   88 1    
    40   19   20 am   BACKBONE|DICT|INTERRES
    41   19   89 1    
    42   20   21 2    
    43   20   22 1    
    44   22   23 1    
    45   22   24 1    
    46   22   90 1    
    47   23   91 1    
    48   23   92 1    
    49   23   93 1    
    50   24   25 am   BACKBONE|DICT|INTERRES
    51   24   94 1    
    52   25   26 2    
    53   25   27 1    
    54   27   28 1    
    55   27   29 1    
    56   27   95 1    
    57   28   96 1    
    58   28   97 1    
    59   28   98 1    
    60   29   30 am   BACKBONE|DICT|INTERRES
    61   29   99 1    
    62   30   31 2    
    63   30   32 1    
    64   32   33 1    
    65   32   34 1    
    66   32  100 1    
    67   33  101 1    
    68   33  102 1    
    69   33  103 1    
    70   34   35 am   BACKBONE|DICT|INTERRES
    71   34  104 1    
    72   35   36 2    
    73   37   38 2    
    74   37   39 am   BACKBONE|DICT|INTERRES
    75   39   40 1    
    76   39  105 1    
    77   40   41 1    
    78   40   42 1    
    79   40  106 1    
    80   41  107 1    
    81   41  108 1    
    82   41  109 1    
    83   42   43 2    
    84   42   44 am   BACKBONE|DICT|INTERRES
    85   44   45 1    
    86   44  110 1    
    87   45   46 1    
    88   45   47 1    
    89   45  111 1    
    90   46  112 1    
    91   46  113 1    
    92   46  114 1    
    93   47   48 2    
    94   47   49 am   BACKBONE|DICT|INTERRES
    95   49   50 1    
    96   49  115 1    
    97   50   51 1    
    98   50   52 1    
    99   50  116 1    
   100   51  117 1    
   101   51  118 1    
   102   51  119 1    
   103   52   53 2    
   104   52   54 am   BACKBONE|DICT|INTERRES
   105   54   55 1    
   106   54  120 1    
   107   55   56 1    
   108   55   57 1    
   109   55  121 1    
   110   56  122 1    
   111   56  123 1    
   112   56  124 1    
   113   57   58 2    
   114   57   59 am   BACKBONE|DICT|INTERRES
   115   59   60 1    
   116   59  125 1    
   117   60   61 1    
   118   60   62 1    
   119   60  126 1    
   120   61  127 1    
   121   61  128 1    
   122   61  129 1    
   123   62   63 2    
   124   62   64 am   BACKBONE|DICT|INTERRES
   125   64   65 1    
   126   64  130 1    
   127   65   66 1    
   128   65   69 1    
   129   65  131 1    
   130   66   67 am   BACKBONE|DICT|INTERRES
   131   66   68 2    
   132   67  132 1    
   133   67  133 1    
   134   69   70 1    
   135   69  134 1    
   136   69  135 1    
   137   70   71 1    
   138   71  136 1    
   139   71  137 1    
@<TRIPOS>SUBSTRUCTURE
     1 UNK         1 GROUP             0       ****    0 ROOT    
