@<TRIPOS>MOLECULE
3R137
137   139    1
SMALL
USER_CHARGES


@<TRIPOS>ATOM
      1 CA         25.5894   -7.9811   -5.7136 C.3       0 UNK        -0.2020 
      2 C          25.9285   -6.9084   -4.6901 C.2       0 UNK         0.4855 
      3 O          25.6612   -7.0874   -3.5006 O.2       0 UNK        -0.5197 
      4 N          26.5105   -5.7892   -5.1384 N.am      1 UNK        -0.4892 
      5 CA         26.9102   -4.6474   -4.3069 C.3       1 UNK         0.0835 
      6 C6         28.0711   -3.8501   -4.9475 C.3       12 UNK        -0.0855 
      7 S7         29.5934   -4.8444   -5.0920 S.3       12 UNK        -0.2931 
      8 C8         30.3316   -4.6589   -3.4359 C.3       12 UNK         0.0378 
      9 C9         30.7485   -3.2259   -3.1324 C.ar      12 UNK        -0.0802 
     10 C10        31.9304   -2.7082   -3.6699 C.ar      12 UNK        -0.0944 
     11 C11        32.3505   -1.4090   -3.3656 C.ar      12 UNK        -0.0787 
     12 C12        31.5565   -0.6219   -2.5185 C.ar      12 UNK        -0.0862 
     13 C13        30.3668   -1.1248   -1.9797 C.ar      12 UNK        -0.0733 
     14 C14        29.9736   -2.4304   -2.2836 C.ar      12 UNK        -0.0832 
     15 C15        29.5221   -0.2719   -1.0394 C.3       12 UNK         0.0240 
     16 S16        27.9008    0.1681   -1.7505 S.3       12 UNK        -0.2522 
     17 C17        28.3926    1.1168   -3.2266 C.3       12 UNK        -0.0967 
     18 CA         28.1152    0.3065   -4.5221 C.3       5 UNK         0.0660 
     19 N          26.6784    0.1600   -4.8004 N.am      5 UNK        -0.4015 
     20 C          25.8555    1.1076   -5.2811 C.2       4 UNK         0.4946 
     21 O          26.2122    2.2389   -5.6159 O.2       4 UNK        -0.5353 
     22 CA         24.3716    0.7397   -5.3994 C.3       4 UNK         0.0277 
     23 CB         24.1233   -0.1998   -6.5908 C.3       4 UNK        -0.1981 
     24 N          23.8514    0.1331   -4.1753 N.am      4 UNK        -0.4209 
     25 C          23.6313    0.7841   -3.0214 C.2       3 UNK         0.4942 
     26 O          23.8558    1.9847   -2.8642 O.2       3 UNK        -0.5208 
     27 CA         23.0203   -0.0186   -1.8538 C.3       3 UNK         0.0250 
     28 CB         21.6565    0.5655   -1.4448 C.3       3 UNK        -0.1990 
     29 N          22.8419   -1.4311   -2.1981 N.am      3 UNK        -0.4232 
     30 C          23.7508   -2.3877   -1.9773 C.2       2 UNK         0.4993 
     31 O          24.7497   -2.2324   -1.2720 O.2       2 UNK        -0.5286 
     32 CA         23.5217   -3.7407   -2.6828 C.3       2 UNK         0.0209 
     33 CB         22.4857   -3.6906   -3.8306 C.3       2 UNK        -0.1931 
     34 N          24.7733   -4.3236   -3.1782 N.am      2 UNK        -0.4546 
     35 C          25.6929   -3.7585   -3.9758 C.2       1 UNK         0.5154 
     36 O          25.6028   -2.6206   -4.4496 O.2       1 UNK        -0.5181 
     37 C          28.8692    0.8382   -5.7567 C.2       5 UNK         0.5014 
     38 O          29.0706    0.0797   -6.7063 O.2       5 UNK        -0.5248 
     39 N          29.2214    2.1325   -5.7553 N.am      6 UNK        -0.4434 
     40 CA         29.8660    2.8438   -6.8607 C.3       6 UNK         0.0363 
     41 CB         30.1325    4.2988   -6.4481 C.3       6 UNK        -0.1936 
     42 C          29.0919    2.7906   -8.1877 C.2       6 UNK         0.5081 
     43 O          29.7220    2.7489   -9.2431 O.2       6 UNK        -0.5248 
     44 N          27.7546    2.7457   -8.1195 N.am      7 UNK        -0.4718 
     45 CA         26.8813    2.6296   -9.2901 C.3       7 UNK         0.0273 
     46 CB         25.4631    3.0843   -8.9073 C.3       7 UNK        -0.1935 
     47 C          26.8564    1.2189   -9.9108 C.2       7 UNK         0.5018 
     48 O          26.3938    1.0844  -11.0444 O.2       7 UNK        -0.5186 
     49 N          27.3312    0.2027   -9.1758 N.am      8 UNK        -0.4240 
     50 CA         27.3580   -1.1958   -9.6083 C.3       8 UNK         0.0235 
     51 CB         26.6709   -2.0715   -8.5457 C.3       8 UNK        -0.2000 
     52 C          28.7889   -1.6850   -9.8682 C.2       8 UNK         0.4941 
     53 O          29.0494   -2.2572  -10.9268 O.2       8 UNK        -0.5273 
     54 N          29.6846   -1.4737   -8.8964 N.am      9 UNK        -0.4262 
     55 CA         31.0414   -2.0249   -8.8801 C.3       9 UNK         0.0264 
     56 CB         31.4201   -2.3206   -7.4185 C.3       9 UNK        -0.1955 
     57 C          32.0982   -1.1073   -9.5139 C.2       9 UNK         0.5031 
     58 O          33.2439   -1.5400   -9.6456 O.2       9 UNK        -0.5390 
     59 N          31.7303    0.1437   -9.8375 N.am      10 UNK        -0.4204 
     60 CA         32.6279    1.2454  -10.2246 C.3       10 UNK         0.0237 
     61 CB         33.3302    0.9605  -11.5703 C.3       10 UNK        -0.1985 
     62 C          33.6092    1.6287   -9.0938 C.2       10 UNK         0.4970 
     63 O          34.7396    2.0374   -9.3649 O.2       10 UNK        -0.4914 
     64 N          33.1462    1.4694   -7.8464 N.am      11 UNK        -0.4285 
     65 CA         33.8431    1.7808   -6.5930 C.3       11 UNK         0.1007 
     66 C          34.2970    3.2649   -6.4943 C.2       11 UNK         0.5703 
     67 N          35.4691    3.5228   -5.9306 N.am      11 UNK        -0.7361 
     68 O          33.5781    4.1806   -6.8897 O.2       11 UNK        -0.4986 
     69 C69        32.9636    1.3725   -5.3768 C.3       12 UNK        -0.0947 
     70 S70        33.9604    0.8742   -3.9374 S.3       12 UNK        -0.2240 
     71 C71        33.6968   -0.9334   -3.9204 C.3       12 UNK         0.0194 
     72 H72        26.0994   -8.9113   -5.4642 H         1 UNK         0.0906 
     73 H73        24.5164   -8.1707   -5.7165 H         1 UNK         0.0906 
     74 H74        25.8860   -7.6919   -6.7217 H         1 UNK         0.0906 
     75 H75        26.7000   -5.6910   -6.1257 H         1 UNK         0.3140 
     76 H76        27.2728   -5.0283   -3.3496 H         1 UNK         0.1085 
     77 H77        28.2878   -2.9521   -4.3723 H         1 UNK         0.0836 
     78 H78        27.7941   -3.5037   -5.9440 H         1 UNK         0.0836 
     79 H79        29.6324   -5.0254   -2.6832 H         1 UNK         0.0731 
     80 H80        31.2065   -5.3076   -3.3712 H         1 UNK         0.0731 
     81 H81        32.5360   -3.3311   -4.3144 H         1 UNK         0.1312 
     82 H82        31.8685    0.3784   -2.2551 H         1 UNK         0.1406 
     83 H83        29.0612   -2.8236   -1.8556 H         1 UNK         0.1631 
     84 H84        30.0490    0.6428   -0.7631 H         1 UNK         0.0717 
     85 H85        29.3596   -0.8204   -0.1106 H         1 UNK         0.0717 
     86 H86        27.8444    2.0607   -3.2262 H         1 UNK         0.0934 
     87 H87        29.4494    1.3752   -3.1366 H         1 UNK         0.0934 
     88 H88        28.5050   -0.6997   -4.3720 H         1 UNK         0.0739 
     89 H89        26.2832   -0.7528   -4.5908 H         1 UNK         0.3093 
     90 H90        23.8182    1.6640   -5.5798 H         1 UNK         0.0818 
     91 H91        23.0568   -0.3504   -6.7585 H         1 UNK         0.0819 
     92 H92        24.5391    0.2104   -7.5115 H         1 UNK         0.0819 
     93 H93        24.5766   -1.1791   -6.4375 H         1 UNK         0.0819 
     94 H94        23.7014   -0.8646   -4.1974 H         1 UNK         0.3041 
     95 H95        23.7003    0.0759   -1.0042 H         1 UNK         0.0784 
     96 H96        21.7528    1.6078   -1.1373 H         1 UNK         0.0793 
     97 H97        20.9391    0.5331   -2.2658 H         1 UNK         0.0793 
     98 H98        21.2288    0.0208   -0.6028 H         1 UNK         0.0793 
     99 H99        22.0317   -1.6578   -2.7578 H         1 UNK         0.3024 
    100 H100       23.1435   -4.4197   -1.9166 H         1 UNK         0.1171 
    101 H101       22.3790   -4.6694   -4.2990 H         1 UNK         0.0786 
    102 H102       22.7728   -2.9868   -4.6129 H         1 UNK         0.0786 
    103 H103       21.4954   -3.4108   -3.4693 H         1 UNK         0.0786 
    104 H104       24.9553   -5.2814   -2.8933 H         1 UNK         0.2977 
    105 H105       28.9456    2.6970   -4.9652 H         1 UNK         0.3127 
    106 H106       30.8241    2.3628   -7.0358 H         1 UNK         0.0770 
    107 H107       29.2077    4.8332   -6.2272 H         1 UNK         0.0814 
    108 H108       30.6418    4.8416   -7.2460 H         1 UNK         0.0814 
    109 H109       30.7738    4.3521   -5.5681 H         1 UNK         0.0814 
    110 H110       27.3051    2.7412   -7.2068 H         1 UNK         0.2983 
    111 H111       27.2527    3.3076  -10.0620 H         1 UNK         0.0947 
    112 H112       24.7907    3.0366   -9.7650 H         1 UNK         0.0806 
    113 H113       25.4608    4.1152   -8.5530 H         1 UNK         0.0806 
    114 H114       25.0347    2.4620   -8.1225 H         1 UNK         0.0806 
    115 H115       27.7399    0.4086   -8.2716 H         1 UNK         0.3000 
    116 H116       26.8051   -1.3199  -10.5421 H         1 UNK         0.0850 
    117 H117       26.8078   -3.1330   -8.7573 H         1 UNK         0.0810 
    118 H118       25.5975   -1.8873   -8.5272 H         1 UNK         0.0810 
    119 H119       27.0614   -1.8812   -7.5455 H         1 UNK         0.0810 
    120 H120       29.3975   -0.9720   -8.0551 H         1 UNK         0.3040 
    121 H121       31.0562   -2.9680   -9.4309 H         1 UNK         0.0766 
    122 H122       32.4034   -2.7878   -7.3488 H         1 UNK         0.0812 
    123 H123       30.7067   -3.0039   -6.9627 H         1 UNK         0.0812 
    124 H124       31.4439   -1.4156   -6.8113 H         1 UNK         0.0812 
    125 H125       30.7587    0.3959   -9.7128 H         1 UNK         0.3205 
    126 H126       31.9936    2.1192  -10.3756 H         1 UNK         0.0754 
    127 H127       33.8631    1.8433  -11.9257 H         1 UNK         0.0769 
    128 H128       32.6112    0.6853  -12.3419 H         1 UNK         0.0769 
    129 H129       34.0603    0.1550  -11.4885 H         1 UNK         0.0769 
    130 H130       32.2074    1.1201   -7.7469 H         1 UNK         0.2981 
    131 H131       34.7383    1.1557   -6.6034 H         1 UNK         0.0541 
    132 H132       36.0499    2.7788   -5.5764 H         1 UNK         0.3459 
    133 H133       35.7723    4.4802   -5.8460 H         1 UNK         0.3459 
    134 H134       32.3078    0.5393   -5.6334 H         1 UNK         0.0612 
    135 H135       32.2956    2.1807   -5.0734 H         1 UNK         0.0612 
    136 H136       33.8373   -1.3133   -4.9339 H         1 UNK         0.0624 
    137 H137       34.4853   -1.3804   -3.3138 H         1 UNK         0.0624 
@<TRIPOS>BOND
     1    1    2 1    
     2    1   72 1    
     3    1   73 1    
     4    1   74 1    
     5    2    3 2    
     6    2    4 am   BACKBONE|DICT|INTERRES
     7    4    5 1    
     8    4   75 1    
     9    5    6 1    
    10    5   35 1    
    11    5   76 1    
    12    6    7 1    
    13    6   77 1    
    14    6   78 1    
    15    7    8 1    
    16    8    9 1    
    17    8   79 1    
    18    8   80 1    
    19    9   10 ar   
    20    9   14 ar   
    21   10   11 ar   
    22   10   81 1    
    23   11   12 ar   
    24   11   71 1    
    25   12   13 ar   
    26   12   82 1    
    27   13   14 ar   
    28   13   15 1    
    29   14   83 1    
    30   15   16 1    
    31   15   84 1    
    32   15   85 1    
    33   16   17 1    
    34   17   18 1    
    35   17   86 1    
    36   17   87 1    
    37   18   19 1    
    38   18   37 1    
    39   18   88 1    
    40   19   20 am   BACKBONE|DICT|INTERRES
    41   19   89 1    
    42   20   21 2    
    43   20   22 1    
    44   22   23 1    
    45   22   24 1    
    46   22   90 1    
    47   23   91 1    
    48   23   92 1    
    49   23   93 1    
    50   24   25 am   BACKBONE|DICT|INTERRES
    51   24   94 1    
    52   25   26 2    
    53   25   27 1    
    54   27   28 1    
    55   27   29 1    
    56   27   95 1    
    57   28   96 1    
    58   28   97 1    
    59   28   98 1    
    60   29   30 am   BACKBONE|DICT|INTERRES
    61   29   99 1    
    62   30   31 2    
    63   30   32 1    
    64   32   33 1    
    65   32   34 1    
    66   32  100 1    
    67   33  101 1    
    68   33  102 1    
    69   33  103 1    
    70   34   35 am   BACKBONE|DICT|INTERRES
    71   34  104 1    
    72   35   36 2    
    73   37   38 2    
    74   37   39 am   BACKBONE|DICT|INTERRES
    75   39   40 1    
    76   39  105 1    
    77   40   41 1    
    78   40   42 1    
    79   40  106 1    
    80   41  107 1    
    81   41  108 1    
    82   41  109 1    
    83   42   43 2    
    84   42   44 am   BACKBONE|DICT|INTERRES
    85   44   45 1    
    86   44  110 1    
    87   45   46 1    
    88   45   47 1    
    89   45  111 1    
    90   46  112 1    
    91   46  113 1    
    92   46  114 1    
    93   47   48 2    
    94   47   49 am   BACKBONE|DICT|INTERRES
    95   49   50 1    
    96   49  115 1    
    97   50   51 1    
    98   50   52 1    
    99   50  116 1    
   100   51  117 1    
   101   51  118 1    
   102   51  119 1    
   103   52   53 2    
   104   52   54 am   BACKBONE|DICT|INTERRES
   105   54   55 1    
   106   54  120 1    
   107   55   56 1    
   108   55   57 1    
   109   55  121 1    
   110   56  122 1    
   111   56  123 1    
   112   56  124 1    
   113   57   58 2    
   114   57   59 am   BACKBONE|DICT|INTERRES
   115   59   60 1    
   116   59  125 1    
   117   60   61 1    
   118   60   62 1    
   119   60  126 1    
   120   61  127 1    
   121   61  128 1    
   122   61  129 1    
   123   62   63 2    
   124   62   64 am   BACKBONE|DICT|INTERRES
   125   64   65 1    
   126   64  130 1    
   127   65   66 1    
   128   65   69 1    
   129   65  131 1    
   130   66   67 am   BACKBONE|DICT|INTERRES
   131   66   68 2    
   132   67  132 1    
   133   67  133 1    
   134   69   70 1    
   135   69  134 1    
   136   69  135 1    
   137   70   71 1    
   138   71  136 1    
   139   71  137 1    
@<TRIPOS>SUBSTRUCTURE
     1 UNK         1 GROUP             0       ****    0 ROOT    
