@<TRIPOS>MOLECULE
3R137
137   139    1
SMALL
USER_CHARGES


@<TRIPOS>ATOM
      1 CA         24.0538   -5.8172    0.7599 C.3       0 UNK        -0.2020 
      2 C          25.2544   -4.8971    0.9267 C.2       0 UNK         0.4855 
      3 O          25.5649   -4.4982    2.0500 O.2       0 UNK        -0.5197 
      4 N          25.9306   -4.5671   -0.1806 N.am      1 UNK        -0.4892 
      5 CA         27.0641   -3.6367   -0.2315 C.3       1 UNK         0.0835 
      6 C6         28.1713   -4.1533   -1.1925 C.3       12 UNK        -0.0855 
      7 S7         29.8369   -3.6244   -0.6624 S.3       12 UNK        -0.2931 
      8 C8         30.8992   -4.7083   -1.6642 C.3       12 UNK         0.0378 
      9 C9         31.0612   -4.1763   -3.0798 C.ar      12 UNK        -0.0802 
     10 C10        32.1384   -3.3427   -3.3949 C.ar      12 UNK        -0.0944 
     11 C11        32.3183   -2.8751   -4.6995 C.ar      12 UNK        -0.0787 
     12 C12        31.3924   -3.2313   -5.6852 C.ar      12 UNK        -0.0862 
     13 C13        30.3072   -4.0648   -5.3884 C.ar      12 UNK        -0.0733 
     14 C14        30.1565   -4.5421   -4.0808 C.ar      12 UNK        -0.0832 
     15 C15        29.3694   -4.4912   -6.5190 C.3       12 UNK         0.0240 
     16 S16        27.6485   -4.8738   -6.0296 S.3       12 UNK        -0.2522 
     17 C17        27.0135   -3.2711   -5.4359 C.3       12 UNK        -0.0967 
     18 CA         26.6347   -2.3001   -6.5906 C.3       5 UNK         0.0660 
     19 N          25.3631   -1.6067   -6.3601 N.am      5 UNK        -0.4015 
     20 C          24.7335   -0.8536   -7.2767 C.2       4 UNK         0.4946 
     21 O          25.1248   -0.7124   -8.4347 O.2       4 UNK        -0.5353 
     22 CA         23.4701   -0.0994   -6.8320 C.3       4 UNK         0.0277 
     23 CB         22.2164   -0.9446   -7.1076 C.3       4 UNK        -0.1981 
     24 N          23.4857    0.3057   -5.4259 N.am      4 UNK        -0.4209 
     25 C          24.3664    1.1479   -4.8668 C.2       3 UNK         0.4942 
     26 O          25.2818    1.6923   -5.4873 O.2       3 UNK        -0.5208 
     27 CA         24.2056    1.4227   -3.3571 C.3       3 UNK         0.0250 
     28 CB         23.0338    0.6572   -2.6996 C.3       3 UNK        -0.1990 
     29 N          25.4248    1.1875   -2.5737 N.am      3 UNK        -0.4232 
     30 C          26.2428    0.1240   -2.6116 C.2       2 UNK         0.4993 
     31 O          26.2008   -0.7557   -3.4771 O.2       2 UNK        -0.5286 
     32 CA         27.3036    0.0233   -1.4924 C.3       2 UNK         0.0209 
     33 CB         27.0349    0.9434   -0.2788 C.3       2 UNK        -0.1931 
     34 N          27.5021   -1.3603   -1.0433 N.am      2 UNK        -0.4546 
     35 C          26.5762   -2.2069   -0.5669 C.2       1 UNK         0.5154 
     36 O          25.3943   -1.8984   -0.3863 O.2       1 UNK        -0.5181 
     37 C          27.7537   -1.2778   -6.8441 C.2       5 UNK         0.5014 
     38 O          28.4397   -1.3575   -7.8645 O.2       5 UNK        -0.5248 
     39 N          27.8766   -0.3071   -5.9271 N.am      6 UNK        -0.4434 
     40 CA         28.8462    0.7809   -6.0191 C.3       6 UNK         0.0363 
     41 CB         28.8634    1.6072   -4.7260 C.3       6 UNK        -0.1936 
     42 C          28.6307    1.6775   -7.2423 C.2       6 UNK         0.5081 
     43 O          29.6112    2.0232   -7.9000 O.2       6 UNK        -0.5248 
     44 N          27.3658    1.9989   -7.5454 N.am      7 UNK        -0.4718 
     45 CA         26.9692    2.7708   -8.7245 C.3       7 UNK         0.0273 
     46 CB         25.4686    3.0924   -8.6520 C.3       7 UNK        -0.1935 
     47 C          27.3122    2.0691  -10.0500 C.2       7 UNK         0.5018 
     48 O          27.8102    2.7282  -10.9631 O.2       7 UNK        -0.5186 
     49 N          27.0572    0.7546  -10.1305 N.am      8 UNK        -0.4240 
     50 CA         27.3639   -0.0706  -11.3007 C.3       8 UNK         0.0235 
     51 CB         26.6359   -1.4204  -11.1934 C.3       8 UNK        -0.2000 
     52 C          28.8719   -0.2871  -11.4987 C.2       8 UNK         0.4941 
     53 O          29.3570   -0.1590  -12.6236 O.2       8 UNK        -0.5273 
     54 N          29.5828   -0.6212  -10.4133 N.am      9 UNK        -0.4262 
     55 CA         31.0150   -0.9290  -10.4364 C.3       9 UNK         0.0264 
     56 CB         31.3603   -1.7645   -9.1951 C.3       9 UNK        -0.1955 
     57 C          31.9249    0.3093  -10.4958 C.2       9 UNK         0.5031 
     58 O          33.0958    0.1598  -10.8483 O.2       9 UNK        -0.5390 
     59 N          31.3987    1.4813  -10.1072 N.am      10 UNK        -0.4204 
     60 CA         32.1260    2.7239   -9.8138 C.3       10 UNK         0.0237 
     61 CB         32.8150    3.2974  -11.0712 C.3       10 UNK        -0.1985 
     62 C          33.0783    2.5345   -8.6150 C.2       10 UNK         0.4970 
     63 O          34.2463    2.9232   -8.6773 O.2       10 UNK        -0.4914 
     64 N          32.5545    1.9004   -7.5575 N.am      11 UNK        -0.4285 
     65 CA         33.2688    1.5899   -6.3124 C.3       11 UNK         0.1007 
     66 C          33.5758    2.8701   -5.4872 C.2       11 UNK         0.5703 
     67 N          34.7623    2.9690   -4.9034 N.am      11 UNK        -0.7361 
     68 O          32.7349    3.7567   -5.3478 O.2       11 UNK        -0.4986 
     69 C69        32.4876    0.5355   -5.4830 C.3       12 UNK        -0.0947 
     70 S70        33.5374   -0.3885   -4.3155 S.3       12 UNK        -0.2240 
     71 C71        33.5550   -2.0545   -5.0522 C.3       12 UNK         0.0194 
     72 H72        23.9033   -6.1093   -0.2792 H         1 UNK         0.0906 
     73 H73        24.1904   -6.7233    1.3497 H         1 UNK         0.0906 
     74 H74        23.1489   -5.3184    1.1060 H         1 UNK         0.0906 
     75 H75        25.5932   -4.8895   -1.0767 H         1 UNK         0.3140 
     76 H76        27.4952   -3.5722    0.7703 H         1 UNK         0.1085 
     77 H77        28.1718   -5.2448   -1.1997 H         1 UNK         0.0836 
     78 H78        27.9872   -3.8505   -2.2254 H         1 UNK         0.0836 
     79 H79        31.8759   -4.7796   -1.1828 H         1 UNK         0.0731 
     80 H80        30.4976   -5.7227   -1.6781 H         1 UNK         0.0731 
     81 H81        32.8524   -3.0730   -2.6284 H         1 UNK         0.1312 
     82 H82        31.5392   -2.8896   -6.6982 H         1 UNK         0.1406 
     83 H83        29.3424   -5.2109   -3.8393 H         1 UNK         0.1631 
     84 H84        29.7909   -5.3850   -6.9803 H         1 UNK         0.0717 
     85 H85        29.3503   -3.7347   -7.3026 H         1 UNK         0.0717 
     86 H86        27.7204   -2.8355   -4.7259 H         1 UNK         0.0934 
     87 H87        26.1306   -3.5029   -4.8382 H         1 UNK         0.0934 
     88 H88        26.5056   -2.8745   -7.5109 H         1 UNK         0.0739 
     89 H89        25.0161   -1.6051   -5.4107 H         1 UNK         0.3093 
     90 H90        23.4036    0.8097   -7.4320 H         1 UNK         0.0818 
     91 H91        21.3050   -0.3878   -6.8888 H         1 UNK         0.0819 
     92 H92        22.1686   -1.2389   -8.1572 H         1 UNK         0.0819 
     93 H93        22.2044   -1.8587   -6.5126 H         1 UNK         0.0819 
     94 H94        22.7716   -0.0919   -4.8329 H         1 UNK         0.3041 
     95 H95        23.9899    2.4890   -3.2749 H         1 UNK         0.0784 
     96 H96        22.0815    0.8833   -3.1813 H         1 UNK         0.0793 
     97 H97        23.1846   -0.4232   -2.7286 H         1 UNK         0.0793 
     98 H98        22.9260    0.9388   -1.6518 H         1 UNK         0.0793 
     99 H99        25.6010    1.8714   -1.8517 H         1 UNK         0.3024 
    100 H100       28.2485    0.3338   -1.9368 H         1 UNK         0.1171 
    101 H101       27.7899    0.8000    0.4945 H         1 UNK         0.0786 
    102 H102       26.0616    0.7484    0.1741 H         1 UNK         0.0786 
    103 H103       27.0711    1.9972   -0.5575 H         1 UNK         0.0786 
    104 H104       28.4368   -1.7307   -1.1654 H         1 UNK         0.2977 
    105 H105       27.2464   -0.3115   -5.1301 H         1 UNK         0.3127 
    106 H106       29.8201    0.3118   -6.1407 H         1 UNK         0.0770 
    107 H107       27.8760    1.9999   -4.4814 H         1 UNK         0.0814 
    108 H108       29.5393    2.4592   -4.8157 H         1 UNK         0.0814 
    109 H109       29.2168    1.0089   -3.8883 H         1 UNK         0.0814 
    110 H110       26.6261    1.7127   -6.9086 H         1 UNK         0.2983 
    111 H111       27.5211    3.7130   -8.6987 H         1 UNK         0.0947 
    112 H112       25.1654    3.7262   -9.4863 H         1 UNK         0.0806 
    113 H113       25.2189    3.6227   -7.7327 H         1 UNK         0.0806 
    114 H114       24.8619    2.1881   -8.6930 H         1 UNK         0.0806 
    115 H115       26.6020    0.2884   -9.3504 H         1 UNK         0.3000 
    116 H116       26.9852    0.4461  -12.1854 H         1 UNK         0.0850 
    117 H117       26.8526   -2.0530  -12.0551 H         1 UNK         0.0810 
    118 H118       25.5550   -1.2838  -11.1551 H         1 UNK         0.0810 
    119 H119       26.9333   -1.9700  -10.2991 H         1 UNK         0.0810 
    120 H120       29.1010   -0.7503   -9.5244 H         1 UNK         0.3040 
    121 H121       31.2264   -1.5335  -11.3212 H         1 UNK         0.0766 
    122 H122       32.4136   -2.0487   -9.1904 H         1 UNK         0.0812 
    123 H123       31.1663   -1.2062   -8.2789 H         1 UNK         0.0812 
    124 H124       30.7749   -2.6833   -9.1613 H         1 UNK         0.0812 
    125 H125       30.4382    1.4730   -9.7821 H         1 UNK         0.3205 
    126 H126       31.3750    3.4486   -9.4955 H         1 UNK         0.0754 
    127 H127       33.2326    4.2841  -10.8676 H         1 UNK         0.0769 
    128 H128       32.1081    3.4076  -11.8935 H         1 UNK         0.0769 
    129 H129       33.6343    2.6658  -11.4149 H         1 UNK         0.0769 
    130 H130       31.5578    1.7142   -7.5717 H         1 UNK         0.2981 
    131 H131       34.2190    1.1428   -6.6127 H         1 UNK         0.0541 
    132 H132       35.4473    2.2347   -4.9925 H         1 UNK         0.3459 
    133 H133       34.9726    3.7876   -4.3544 H         1 UNK         0.3459 
    134 H134       32.0200   -0.1895   -6.1495 H         1 UNK         0.0612 
    135 H135       31.6787    1.0013   -4.9196 H         1 UNK         0.0612 
    136 H136       33.6805   -1.9743   -6.1333 H         1 UNK         0.0624 
    137 H137       34.4375   -2.5810   -4.6862 H         1 UNK         0.0624 
@<TRIPOS>BOND
     1    1    2 1    
     2    1   72 1    
     3    1   73 1    
     4    1   74 1    
     5    2    3 2    
     6    2    4 am   BACKBONE|DICT|INTERRES
     7    4    5 1    
     8    4   75 1    
     9    5    6 1    
    10    5   35 1    
    11    5   76 1    
    12    6    7 1    
    13    6   77 1    
    14    6   78 1    
    15    7    8 1    
    16    8    9 1    
    17    8   79 1    
    18    8   80 1    
    19    9   10 ar   
    20    9   14 ar   
    21   10   11 ar   
    22   10   81 1    
    23   11   12 ar   
    24   11   71 1    
    25   12   13 ar   
    26   12   82 1    
    27   13   14 ar   
    28   13   15 1    
    29   14   83 1    
    30   15   16 1    
    31   15   84 1    
    32   15   85 1    
    33   16   17 1    
    34   17   18 1    
    35   17   86 1    
    36   17   87 1    
    37   18   19 1    
    38   18   37 1    
    39   18   88 1    
    40   19   20 am   BACKBONE|DICT|INTERRES
    41   19   89 1    
    42   20   21 2    
    43   20   22 1    
    44   22   23 1    
    45   22   24 1    
    46   22   90 1    
    47   23   91 1    
    48   23   92 1    
    49   23   93 1    
    50   24   25 am   BACKBONE|DICT|INTERRES
    51   24   94 1    
    52   25   26 2    
    53   25   27 1    
    54   27   28 1    
    55   27   29 1    
    56   27   95 1    
    57   28   96 1    
    58   28   97 1    
    59   28   98 1    
    60   29   30 am   BACKBONE|DICT|INTERRES
    61   29   99 1    
    62   30   31 2    
    63   30   32 1    
    64   32   33 1    
    65   32   34 1    
    66   32  100 1    
    67   33  101 1    
    68   33  102 1    
    69   33  103 1    
    70   34   35 am   BACKBONE|DICT|INTERRES
    71   34  104 1    
    72   35   36 2    
    73   37   38 2    
    74   37   39 am   BACKBONE|DICT|INTERRES
    75   39   40 1    
    76   39  105 1    
    77   40   41 1    
    78   40   42 1    
    79   40  106 1    
    80   41  107 1    
    81   41  108 1    
    82   41  109 1    
    83   42   43 2    
    84   42   44 am   BACKBONE|DICT|INTERRES
    85   44   45 1    
    86   44  110 1    
    87   45   46 1    
    88   45   47 1    
    89   45  111 1    
    90   46  112 1    
    91   46  113 1    
    92   46  114 1    
    93   47   48 2    
    94   47   49 am   BACKBONE|DICT|INTERRES
    95   49   50 1    
    96   49  115 1    
    97   50   51 1    
    98   50   52 1    
    99   50  116 1    
   100   51  117 1    
   101   51  118 1    
   102   51  119 1    
   103   52   53 2    
   104   52   54 am   BACKBONE|DICT|INTERRES
   105   54   55 1    
   106   54  120 1    
   107   55   56 1    
   108   55   57 1    
   109   55  121 1    
   110   56  122 1    
   111   56  123 1    
   112   56  124 1    
   113   57   58 2    
   114   57   59 am   BACKBONE|DICT|INTERRES
   115   59   60 1    
   116   59  125 1    
   117   60   61 1    
   118   60   62 1    
   119   60  126 1    
   120   61  127 1    
   121   61  128 1    
   122   61  129 1    
   123   62   63 2    
   124   62   64 am   BACKBONE|DICT|INTERRES
   125   64   65 1    
   126   64  130 1    
   127   65   66 1    
   128   65   69 1    
   129   65  131 1    
   130   66   67 am   BACKBONE|DICT|INTERRES
   131   66   68 2    
   132   67  132 1    
   133   67  133 1    
   134   69   70 1    
   135   69  134 1    
   136   69  135 1    
   137   70   71 1    
   138   71  136 1    
   139   71  137 1    
@<TRIPOS>SUBSTRUCTURE
     1 UNK         1 GROUP             0       ****    0 ROOT    
