@<TRIPOS>MOLECULE
3R137
137   139    1
SMALL
USER_CHARGES


@<TRIPOS>ATOM
      1 CA         23.6700   -2.7253    0.4110 C.3       0 UNK        -0.2020 
      2 C          25.1001   -2.4242   -0.0084 C.2       0 UNK         0.4855 
      3 O          25.5431   -1.2808    0.1004 O.2       0 UNK        -0.5197 
      4 N          25.8332   -3.4387   -0.4852 N.am      1 UNK        -0.4892 
      5 CA         27.2354   -3.3160   -0.8968 C.3       1 UNK         0.0835 
      6 C6         27.9085   -4.6992   -1.0695 C.3       12 UNK        -0.0855 
      7 S7         29.6985   -4.6214   -0.7148 S.3       12 UNK        -0.2931 
      8 C8         30.4098   -5.6376   -2.0472 C.3       12 UNK         0.0378 
      9 C9         30.2881   -4.9678   -3.4075 C.ar      12 UNK        -0.0802 
     10 C10        31.1304   -3.9041   -3.7474 C.ar      12 UNK        -0.0944 
     11 C11        31.0262   -3.2892   -4.9989 C.ar      12 UNK        -0.0787 
     12 C12        30.0825   -3.7565   -5.9162 C.ar      12 UNK        -0.0862 
     13 C13        29.2230   -4.8063   -5.5806 C.ar      12 UNK        -0.0733 
     14 C14        29.3365   -5.4147   -4.3287 C.ar      12 UNK        -0.0832 
     15 C15        28.1533   -5.2669   -6.5591 C.3       12 UNK         0.0240 
     16 S16        26.5633   -4.4389   -6.2369 S.3       12 UNK        -0.2522 
     17 C17        26.9923   -2.7196   -6.6619 C.3       12 UNK        -0.0967 
     18 CA         25.7588   -1.7915   -6.7470 C.3       5 UNK         0.0660 
     19 N          25.0728   -1.6802   -5.4566 N.am      5 UNK        -0.4015 
     20 C          23.7947   -1.3157   -5.2890 C.2       4 UNK         0.4946 
     21 O          23.0261   -1.0709   -6.2209 O.2       4 UNK        -0.5353 
     22 CA         23.3130   -1.1357   -3.8443 C.3       4 UNK         0.0277 
     23 CB         23.0352   -2.4947   -3.1827 C.3       4 UNK        -0.1981 
     24 N          24.2866   -0.3677   -3.0640 N.am      4 UNK        -0.4209 
     25 C          24.4215    0.9657   -3.1440 C.2       3 UNK         0.4942 
     26 O          23.6586    1.6921   -3.7818 O.2       3 UNK        -0.5208 
     27 CA         25.6109    1.6049   -2.4061 C.3       3 UNK         0.0250 
     28 CB         25.2048    2.0408   -0.9893 C.3       3 UNK        -0.1990 
     29 N          26.7743    0.7168   -2.3416 N.am      3 UNK        -0.4232 
     30 C          27.5877    0.4731   -3.3818 C.2       2 UNK         0.4993 
     31 O          27.4858    1.0403   -4.4682 O.2       2 UNK        -0.5286 
     32 CA         28.6934   -0.5847   -3.1939 C.3       2 UNK         0.0209 
     33 CB         30.0352    0.0950   -2.8829 C.3       2 UNK        -0.1931 
     34 N          28.4126   -1.5711   -2.1469 N.am      2 UNK        -0.4546 
     35 C          27.3805   -2.4237   -2.1481 C.2       1 UNK         0.5154 
     36 O          26.5448   -2.4827   -3.0553 O.2       1 UNK        -0.5181 
     37 C          26.1269   -0.3962   -7.3006 C.2       5 UNK         0.5014 
     38 O          27.3013   -0.1177   -7.5535 O.2       5 UNK        -0.5248 
     39 N          25.1146    0.4548   -7.5149 N.am      6 UNK        -0.4434 
     40 CA         25.2438    1.8276   -8.0176 C.3       6 UNK         0.0363 
     41 CB         23.8690    2.5119   -7.9671 C.3       6 UNK        -0.1936 
     42 C          25.8526    1.9329   -9.4297 C.2       6 UNK         0.5081 
     43 O          26.3857    2.9854   -9.7783 O.2       6 UNK        -0.5248 
     44 N          25.7865    0.8436  -10.2082 N.am      7 UNK        -0.4718 
     45 CA         26.4697    0.6986  -11.4954 C.3       7 UNK         0.0273 
     46 CB         25.8579   -0.4871  -12.2591 C.3       7 UNK        -0.1935 
     47 C          27.9939    0.5177  -11.3533 C.2       7 UNK         0.5018 
     48 O          28.7222    0.8634  -12.2844 O.2       7 UNK        -0.5186 
     49 N          28.4482   -0.0194  -10.2110 N.am      8 UNK        -0.4240 
     50 CA         29.8631   -0.1763   -9.8729 C.3       8 UNK         0.0235 
     51 CB         30.0624   -1.4350   -9.0134 C.3       8 UNK        -0.2000 
     52 C          30.3817    1.0676   -9.1413 C.2       8 UNK         0.4941 
     53 O          31.4543    1.5577   -9.4952 O.2       8 UNK        -0.5273 
     54 N          29.6094    1.5552   -8.1550 N.am      9 UNK        -0.4262 
     55 CA         29.8236    2.7681   -7.3532 C.3       9 UNK         0.0264 
     56 CB         29.5156    4.0276   -8.1918 C.3       9 UNK        -0.1955 
     57 C          31.2110    2.8168   -6.6838 C.2       9 UNK         0.5031 
     58 O          31.3703    2.2908   -5.5828 O.2       9 UNK        -0.5390 
     59 N          32.1912    3.4257   -7.3674 N.am      10 UNK        -0.4204 
     60 CA         33.6050    3.4695   -6.9794 C.3       10 UNK         0.0237 
     61 CB         34.3451    4.4598   -7.8936 C.3       10 UNK        -0.1985 
     62 C          34.3003    2.0926   -6.9990 C.2       10 UNK         0.4970 
     63 O          35.3374    1.9436   -6.3509 O.2       10 UNK        -0.4914 
     64 N          33.7125    1.1188   -7.7083 N.am      11 UNK        -0.4285 
     65 CA         34.1466   -0.2815   -7.8030 C.3       11 UNK         0.1007 
     66 C          35.4170   -0.4868   -8.6795 C.2       11 UNK         0.5703 
     67 N          35.9466   -1.7018   -8.7328 N.am      11 UNK        -0.7361 
     68 O          35.9084    0.4256   -9.3425 O.2       11 UNK        -0.4986 
     69 C69        34.2227   -0.9774   -6.4055 C.3       12 UNK        -0.0947 
     70 S70        33.3396   -2.5716   -6.3514 S.3       12 UNK        -0.2240 
     71 C71        31.9014   -2.0957   -5.3457 C.3       12 UNK         0.0194 
     72 H72        23.6114   -2.8193    1.4949 H         1 UNK         0.0906 
     73 H73        23.3031   -3.6498   -0.0343 H         1 UNK         0.0906 
     74 H74        23.0083   -1.9148    0.1068 H         1 UNK         0.0906 
     75 H75        25.4160   -4.3524   -0.5920 H         1 UNK         0.3140 
     76 H76        27.7325   -2.8042   -0.0687 H         1 UNK         0.1085 
     77 H77        27.7135   -5.1144   -2.0592 H         1 UNK         0.0836 
     78 H78        27.4871   -5.4153   -0.3621 H         1 UNK         0.0836 
     79 H79        31.4638   -5.8154   -1.8287 H         1 UNK         0.0731 
     80 H80        29.9312   -6.6183   -2.0496 H         1 UNK         0.0731 
     81 H81        31.8584   -3.5487   -3.0309 H         1 UNK         0.1312 
     82 H82        30.0014   -3.2878   -6.8851 H         1 UNK         0.1406 
     83 H83        28.6730   -6.2287   -4.0697 H         1 UNK         0.1631 
     84 H84        28.0141   -6.3457   -6.4757 H         1 UNK         0.0717 
     85 H85        28.4648   -5.0782   -7.5877 H         1 UNK         0.0717 
     86 H86        27.6964   -2.3379   -5.9214 H         1 UNK         0.0934 
     87 H87        27.5203   -2.7388   -7.6172 H         1 UNK         0.0934 
     88 H88        25.0662   -2.2359   -7.4652 H         1 UNK         0.0739 
     89 H89        25.6309   -1.8976   -4.6343 H         1 UNK         0.3093 
     90 H90        22.3712   -0.5831   -3.8754 H         1 UNK         0.0818 
     91 H91        22.3635   -3.0960   -3.7971 H         1 UNK         0.0819 
     92 H92        23.9454   -3.0761   -3.0343 H         1 UNK         0.0819 
     93 H93        22.5504   -2.3669   -2.2165 H         1 UNK         0.0819 
     94 H94        24.9785   -0.8954   -2.5477 H         1 UNK         0.3041 
     95 H95        25.8965    2.5017   -2.9607 H         1 UNK         0.0784 
     96 H96        24.3835    2.7579   -1.0256 H         1 UNK         0.0793 
     97 H97        24.8711    1.1990   -0.3829 H         1 UNK         0.0793 
     98 H98        26.0323    2.5235   -0.4690 H         1 UNK         0.0793 
     99 H99        26.9137    0.2064   -1.4797 H         1 UNK         0.3024 
    100 H100       28.7909   -1.1243   -4.1383 H         1 UNK         0.1171 
    101 H101       29.9886    0.6806   -1.9640 H         1 UNK         0.0786 
    102 H102       30.8372   -0.6344   -2.7747 H         1 UNK         0.0786 
    103 H103       30.3205    0.7732   -3.6873 H         1 UNK         0.0786 
    104 H104       29.0592   -1.5977   -1.3713 H         1 UNK         0.2977 
    105 H105       24.1825    0.1398   -7.2590 H         1 UNK         0.3127 
    106 H106       25.9163    2.3582   -7.3398 H         1 UNK         0.0770 
    107 H107       23.9351    3.5476   -8.3036 H         1 UNK         0.0814 
    108 H108       23.1432    2.0064   -8.6052 H         1 UNK         0.0814 
    109 H109       23.4719    2.5273   -6.9515 H         1 UNK         0.0814 
    110 H110       25.2993    0.0340   -9.8530 H         1 UNK         0.2983 
    111 H111       26.3008    1.6066  -12.0790 H         1 UNK         0.0947 
    112 H112       25.9884   -1.4268  -11.7208 H         1 UNK         0.0806 
    113 H113       26.3273   -0.6043  -13.2369 H         1 UNK         0.0806 
    114 H114       24.7910   -0.3417  -12.4299 H         1 UNK         0.0806 
    115 H115       27.7886   -0.2056   -9.4636 H         1 UNK         0.3000 
    116 H116       30.4453   -0.3005  -10.7889 H         1 UNK         0.0850 
    117 H117       31.1211   -1.6150   -8.8251 H         1 UNK         0.0810 
    118 H118       29.6663   -2.3217   -9.5082 H         1 UNK         0.0810 
    119 H119       29.5735   -1.3425   -8.0442 H         1 UNK         0.0810 
    120 H120       28.7781    1.0213   -7.9079 H         1 UNK         0.3040 
    121 H121       29.0943    2.7281   -6.5418 H         1 UNK         0.0766 
    122 H122       29.7184    4.9384   -7.6265 H         1 UNK         0.0812 
    123 H123       28.4633    4.0573   -8.4726 H         1 UNK         0.0812 
    124 H124       30.0985    4.0697   -9.1123 H         1 UNK         0.0812 
    125 H125       31.9659    3.7748   -8.2883 H         1 UNK         0.3205 
    126 H126       33.6565    3.8426   -5.9544 H         1 UNK         0.0754 
    127 H127       35.3950    4.5441   -7.6091 H         1 UNK         0.0769 
    128 H128       33.9132    5.4588   -7.8305 H         1 UNK         0.0769 
    129 H129       34.3151    4.1440   -8.9375 H         1 UNK         0.0769 
    130 H130       32.9022    1.3598   -8.2725 H         1 UNK         0.2981 
    131 H131       33.3467   -0.7455   -8.3797 H         1 UNK         0.0541 
    132 H132       36.7606   -1.8603   -9.3057 H         1 UNK         0.3459 
    133 H133       35.5439   -2.4613   -8.2053 H         1 UNK         0.3459 
    134 H134       33.8016   -0.3359   -5.6302 H         1 UNK         0.0612 
    135 H135       35.2554   -1.1394   -6.0914 H         1 UNK         0.0612 
    136 H136       31.3163   -1.3462   -5.8818 H         1 UNK         0.0624 
    137 H137       32.2512   -1.6169   -4.4304 H         1 UNK         0.0624 
@<TRIPOS>BOND
     1    1    2 1    
     2    1   72 1    
     3    1   73 1    
     4    1   74 1    
     5    2    3 2    
     6    2    4 am   BACKBONE|DICT|INTERRES
     7    4    5 1    
     8    4   75 1    
     9    5    6 1    
    10    5   35 1    
    11    5   76 1    
    12    6    7 1    
    13    6   77 1    
    14    6   78 1    
    15    7    8 1    
    16    8    9 1    
    17    8   79 1    
    18    8   80 1    
    19    9   10 ar   
    20    9   14 ar   
    21   10   11 ar   
    22   10   81 1    
    23   11   12 ar   
    24   11   71 1    
    25   12   13 ar   
    26   12   82 1    
    27   13   14 ar   
    28   13   15 1    
    29   14   83 1    
    30   15   16 1    
    31   15   84 1    
    32   15   85 1    
    33   16   17 1    
    34   17   18 1    
    35   17   86 1    
    36   17   87 1    
    37   18   19 1    
    38   18   37 1    
    39   18   88 1    
    40   19   20 am   BACKBONE|DICT|INTERRES
    41   19   89 1    
    42   20   21 2    
    43   20   22 1    
    44   22   23 1    
    45   22   24 1    
    46   22   90 1    
    47   23   91 1    
    48   23   92 1    
    49   23   93 1    
    50   24   25 am   BACKBONE|DICT|INTERRES
    51   24   94 1    
    52   25   26 2    
    53   25   27 1    
    54   27   28 1    
    55   27   29 1    
    56   27   95 1    
    57   28   96 1    
    58   28   97 1    
    59   28   98 1    
    60   29   30 am   BACKBONE|DICT|INTERRES
    61   29   99 1    
    62   30   31 2    
    63   30   32 1    
    64   32   33 1    
    65   32   34 1    
    66   32  100 1    
    67   33  101 1    
    68   33  102 1    
    69   33  103 1    
    70   34   35 am   BACKBONE|DICT|INTERRES
    71   34  104 1    
    72   35   36 2    
    73   37   38 2    
    74   37   39 am   BACKBONE|DICT|INTERRES
    75   39   40 1    
    76   39  105 1    
    77   40   41 1    
    78   40   42 1    
    79   40  106 1    
    80   41  107 1    
    81   41  108 1    
    82   41  109 1    
    83   42   43 2    
    84   42   44 am   BACKBONE|DICT|INTERRES
    85   44   45 1    
    86   44  110 1    
    87   45   46 1    
    88   45   47 1    
    89   45  111 1    
    90   46  112 1    
    91   46  113 1    
    92   46  114 1    
    93   47   48 2    
    94   47   49 am   BACKBONE|DICT|INTERRES
    95   49   50 1    
    96   49  115 1    
    97   50   51 1    
    98   50   52 1    
    99   50  116 1    
   100   51  117 1    
   101   51  118 1    
   102   51  119 1    
   103   52   53 2    
   104   52   54 am   BACKBONE|DICT|INTERRES
   105   54   55 1    
   106   54  120 1    
   107   55   56 1    
   108   55   57 1    
   109   55  121 1    
   110   56  122 1    
   111   56  123 1    
   112   56  124 1    
   113   57   58 2    
   114   57   59 am   BACKBONE|DICT|INTERRES
   115   59   60 1    
   116   59  125 1    
   117   60   61 1    
   118   60   62 1    
   119   60  126 1    
   120   61  127 1    
   121   61  128 1    
   122   61  129 1    
   123   62   63 2    
   124   62   64 am   BACKBONE|DICT|INTERRES
   125   64   65 1    
   126   64  130 1    
   127   65   66 1    
   128   65   69 1    
   129   65  131 1    
   130   66   67 am   BACKBONE|DICT|INTERRES
   131   66   68 2    
   132   67  132 1    
   133   67  133 1    
   134   69   70 1    
   135   69  134 1    
   136   69  135 1    
   137   70   71 1    
   138   71  136 1    
   139   71  137 1    
@<TRIPOS>SUBSTRUCTURE
     1 UNK         1 GROUP             0       ****    0 ROOT    
