@<TRIPOS>MOLECULE
3R137
137   139    1
SMALL
USER_CHARGES


@<TRIPOS>ATOM
      1 CA         28.3574   -4.5629    4.9835 C.3       0 UNK        -0.2020 
      2 C          28.6364   -3.8701    3.6581 C.2       0 UNK         0.4855 
      3 O          29.1943   -2.7727    3.6474 O.2       0 UNK        -0.5197 
      4 N          28.2553   -4.5036    2.5403 N.am      1 UNK        -0.4892 
      5 CA         28.4193   -3.9744    1.1787 C.3       1 UNK         0.0835 
      6 C6         28.2282   -5.0942    0.1197 C.3       12 UNK        -0.0855 
      7 S7         29.2382   -4.8525   -1.3798 S.3       12 UNK        -0.2931 
      8 C8         28.0094   -4.1325   -2.5149 C.3       12 UNK         0.0378 
      9 C9         28.5759   -3.8973   -3.9105 C.ar      12 UNK        -0.0802 
     10 C10        29.6895   -3.0703   -4.0951 C.ar      12 UNK        -0.0944 
     11 C11        30.1922   -2.8269   -5.3769 C.ar      12 UNK        -0.0787 
     12 C12        29.5646   -3.4077   -6.4816 C.ar      12 UNK        -0.0862 
     13 C13        28.4336   -4.2135   -6.3150 C.ar      12 UNK        -0.0733 
     14 C14        27.9505   -4.4628   -5.0268 C.ar      12 UNK        -0.0832 
     15 C15        27.7340   -4.8217   -7.5234 C.3       12 UNK         0.0240 
     16 S16        26.2876   -3.8398   -8.0451 S.3       12 UNK        -0.2522 
     17 C17        27.0807   -2.3282   -8.6956 C.3       12 UNK        -0.0967 
     18 CA         26.7583   -1.0387   -7.8874 C.3       5 UNK         0.0660 
     19 N          26.8892   -1.2363   -6.4368 N.am      5 UNK        -0.4015 
     20 C          26.2880   -0.5103   -5.4854 C.2       4 UNK         0.4946 
     21 O          25.5867    0.4782   -5.7171 O.2       4 UNK        -0.5353 
     22 CA         26.5887   -0.9103   -4.0353 C.3       4 UNK         0.0277 
     23 CB         27.8268   -0.1621   -3.5158 C.3       4 UNK        -0.1981 
     24 N          25.4735   -0.6681   -3.1225 N.am      4 UNK        -0.4209 
     25 C          24.2956   -1.3055   -3.1558 C.2       3 UNK         0.4942 
     26 O          23.9941   -2.1552   -3.9969 O.2       3 UNK        -0.5208 
     27 CA         23.3189   -0.9520   -2.0154 C.3       3 UNK         0.0250 
     28 CB         22.0300   -1.8025   -2.0349 C.3       3 UNK        -0.1990 
     29 N          23.9636   -1.0086   -0.6931 N.am      3 UNK        -0.4232 
     30 C          24.5693   -2.0704   -0.1373 C.2       2 UNK         0.4993 
     31 O          24.6174   -3.1924   -0.6491 O.2       2 UNK        -0.5286 
     32 CA         25.2073   -1.8404    1.2446 C.3       2 UNK         0.0209 
     33 CB         24.1527   -1.9722    2.3562 C.3       2 UNK        -0.1931 
     34 N          26.2839   -2.7999    1.4986 N.am      2 UNK        -0.4546 
     35 C          27.4857   -2.7733    0.9041 C.2       1 UNK         0.5154 
     36 O          27.8650   -1.8520    0.1792 O.2       1 UNK        -0.5181 
     37 C          27.6089    0.1589   -8.3743 C.2       5 UNK         0.5014 
     38 O          28.3193    0.0398   -9.3748 O.2       5 UNK        -0.5248 
     39 N          27.5512    1.2816   -7.6462 N.am      6 UNK        -0.4434 
     40 CA         28.4411    2.4409   -7.7480 C.3       6 UNK         0.0363 
     41 CB         27.9985    3.5018   -6.7284 C.3       6 UNK        -0.1936 
     42 C          28.5534    3.0579   -9.1497 C.2       6 UNK         0.5081 
     43 O          29.6443    3.4745   -9.5349 O.2       6 UNK        -0.5248 
     44 N          27.4395    3.0835   -9.8913 N.am      7 UNK        -0.4718 
     45 CA         27.3705    3.6101  -11.2565 C.3       7 UNK         0.0273 
     46 CB         25.9021    3.9091  -11.6010 C.3       7 UNK        -0.1935 
     47 C          27.9883    2.6785  -12.3162 C.2       7 UNK         0.5018 
     48 O          28.3349    3.1598  -13.3957 O.2       7 UNK        -0.5186 
     49 N          28.0928    1.3773  -12.0131 N.am      8 UNK        -0.4240 
     50 CA         28.5807    0.3473  -12.9326 C.3       8 UNK         0.0235 
     51 CB         27.6330   -0.8637  -12.8875 C.3       8 UNK        -0.2000 
     52 C          30.0131   -0.0796  -12.5900 C.2       8 UNK         0.4941 
     53 O          30.8548   -0.1525  -13.4856 O.2       8 UNK        -0.5273 
     54 N          30.2640   -0.3585  -11.3047 N.am      9 UNK        -0.4262 
     55 CA         31.5438   -0.8486  -10.7898 C.3       9 UNK         0.0264 
     56 CB         31.2699   -1.7133   -9.5482 C.3       9 UNK        -0.1955 
     57 C          32.5409    0.2745  -10.4573 C.2       9 UNK         0.5031 
     58 O          33.7030   -0.0300  -10.1871 O.2       9 UNK        -0.5390 
     59 N          32.0756    1.5343  -10.4496 N.am      10 UNK        -0.4204 
     60 CA         32.8103    2.7583  -10.0949 C.3       10 UNK         0.0237 
     61 CB         34.0053    2.9934  -11.0447 C.3       10 UNK        -0.1985 
     62 C          33.2126    2.8401   -8.6066 C.2       10 UNK         0.4970 
     63 O          34.0476    3.6751   -8.2550 O.2       10 UNK        -0.4914 
     64 N          32.6108    1.9970   -7.7561 N.am      11 UNK        -0.4285 
     65 CA         32.8546    1.9345   -6.3073 C.3       11 UNK         0.1007 
     66 C          32.1011    3.0047   -5.4631 C.2       11 UNK         0.5703 
     67 N          31.3366    3.9095   -6.0627 N.am      11 UNK        -0.7361 
     68 O          32.2334    3.0323   -4.2418 O.2       11 UNK        -0.4986 
     69 C69        32.6906    0.4906   -5.7623 C.3       12 UNK        -0.0947 
     70 S70        31.0274   -0.2369   -5.9565 S.3       12 UNK        -0.2240 
     71 C71        31.4336   -1.9673   -5.5632 C.3       12 UNK         0.0194 
     72 H72        27.7122   -3.9407    5.6033 H         1 UNK         0.0906 
     73 H73        27.8683   -5.5271    4.8465 H         1 UNK         0.0906 
     74 H74        29.2895   -4.7299    5.5228 H         1 UNK         0.0906 
     75 H75        27.8116   -5.4088    2.6134 H         1 UNK         0.3140 
     76 H76        29.4443   -3.6019    1.1079 H         1 UNK         0.1085 
     77 H77        28.5471   -6.0526    0.5331 H         1 UNK         0.0836 
     78 H78        27.1768   -5.2322   -0.1427 H         1 UNK         0.0836 
     79 H79        27.1390   -4.7892   -2.5591 H         1 UNK         0.0731 
     80 H80        27.6572   -3.1827   -2.1126 H         1 UNK         0.0731 
     81 H81        30.1682   -2.6207   -3.2356 H         1 UNK         0.1312 
     82 H82        29.9604   -3.2299   -7.4710 H         1 UNK         0.1406 
     83 H83        27.0764   -5.0876   -4.8981 H         1 UNK         0.1631 
     84 H84        27.4021   -5.8325   -7.2818 H         1 UNK         0.0717 
     85 H85        28.4271   -4.9247   -8.3600 H         1 UNK         0.0717 
     86 H86        28.1569   -2.4904   -8.7599 H         1 UNK         0.0934 
     87 H87        26.7480   -2.2050   -9.7276 H         1 UNK         0.0934 
     88 H88        25.7167   -0.7818   -8.0912 H         1 UNK         0.0739 
     89 H89        27.4791   -2.0097   -6.1599 H         1 UNK         0.3093 
     90 H90        26.7800   -1.9806   -4.0204 H         1 UNK         0.0818 
     91 H91        28.1100   -0.5053   -2.5202 H         1 UNK         0.0819 
     92 H92        28.6854   -0.3246   -4.1666 H         1 UNK         0.0819 
     93 H93        27.6582    0.9145   -3.4680 H         1 UNK         0.0819 
     94 H94        25.6230    0.0255   -2.4050 H         1 UNK         0.3041 
     95 H95        23.0266    0.0871   -2.1762 H         1 UNK         0.0784 
     96 H96        21.4971   -1.6808   -2.9788 H         1 UNK         0.0793 
     97 H97        22.2425   -2.8656   -1.9177 H         1 UNK         0.0793 
     98 H98        21.3478   -1.5073   -1.2377 H         1 UNK         0.0793 
     99 H99        23.9678   -0.1378   -0.1791 H         1 UNK         0.3024 
    100 H100       25.6304   -0.8333    1.2726 H         1 UNK         0.1171 
    101 H101       23.3489   -1.2467    2.2238 H         1 UNK         0.0786 
    102 H102       24.5881   -1.7938    3.3397 H         1 UNK         0.0786 
    103 H103       23.6973   -2.9635    2.3650 H         1 UNK         0.0786 
    104 H104       26.0530   -3.6018    2.0660 H         1 UNK         0.2977 
    105 H105       26.8935    1.2801   -6.8705 H         1 UNK         0.3127 
    106 H106       29.4393    2.0973   -7.4706 H         1 UNK         0.0770 
    107 H107       26.9623    3.8040   -6.8848 H         1 UNK         0.0814 
    108 H108       28.6118    4.4007   -6.8014 H         1 UNK         0.0814 
    109 H109       28.0904    3.1306   -5.7074 H         1 UNK         0.0814 
    110 H110       26.5883    2.7125   -9.4939 H         1 UNK         0.2983 
    111 H111       27.9263    4.5501  -11.2907 H         1 UNK         0.0947 
    112 H112       25.8145    4.3351  -12.6017 H         1 UNK         0.0806 
    113 H113       25.4697    4.6296  -10.9064 H         1 UNK         0.0806 
    114 H114       25.2891    3.0072  -11.5766 H         1 UNK         0.0806 
    115 H115       27.8502    1.0758  -11.0759 H         1 UNK         0.3000 
    116 H116       28.5848    0.7257  -13.9573 H         1 UNK         0.0850 
    117 H117       27.9716   -1.6497  -13.5640 H         1 UNK         0.0810 
    118 H118       26.6241   -0.5864  -13.1934 H         1 UNK         0.0810 
    119 H119       27.5717   -1.2968  -11.8888 H         1 UNK         0.0810 
    120 H120       29.5124   -0.2596  -10.6214 H         1 UNK         0.3040 
    121 H121       32.0139   -1.4823  -11.5450 H         1 UNK         0.0766 
    122 H122       32.1967   -2.0970   -9.1194 H         1 UNK         0.0812 
    123 H123       30.6492   -2.5734   -9.7989 H         1 UNK         0.0812 
    124 H124       30.7587   -1.1468   -8.7701 H         1 UNK         0.0812 
    125 H125       31.0969    1.6709  -10.6650 H         1 UNK         0.3205 
    126 H126       32.1154    3.5823  -10.2569 H         1 UNK         0.0754 
    127 H127       34.4347    3.9847  -10.8949 H         1 UNK         0.0769 
    128 H128       33.7002    2.9297  -12.0892 H         1 UNK         0.0769 
    129 H129       34.8040    2.2691  -10.8828 H         1 UNK         0.0769 
    130 H130       31.9253    1.3507   -8.1146 H         1 UNK         0.2981 
    131 H131       33.9075    2.1803   -6.1575 H         1 UNK         0.0541 
    132 H132       31.2477    3.9212   -7.0656 H         1 UNK         0.3459 
    133 H133       30.8732    4.6062   -5.5023 H         1 UNK         0.3459 
    134 H134       32.9619    0.4492   -4.7059 H         1 UNK         0.0612 
    135 H135       33.4034   -0.1598   -6.2721 H         1 UNK         0.0612 
    136 H136       32.0540   -2.3788   -6.3609 H         1 UNK         0.0624 
    137 H137       32.0411   -1.9962   -4.6572 H         1 UNK         0.0624 
@<TRIPOS>BOND
     1    1    2 1    
     2    1   72 1    
     3    1   73 1    
     4    1   74 1    
     5    2    3 2    
     6    2    4 am   BACKBONE|DICT|INTERRES
     7    4    5 1    
     8    4   75 1    
     9    5    6 1    
    10    5   35 1    
    11    5   76 1    
    12    6    7 1    
    13    6   77 1    
    14    6   78 1    
    15    7    8 1    
    16    8    9 1    
    17    8   79 1    
    18    8   80 1    
    19    9   10 ar   
    20    9   14 ar   
    21   10   11 ar   
    22   10   81 1    
    23   11   12 ar   
    24   11   71 1    
    25   12   13 ar   
    26   12   82 1    
    27   13   14 ar   
    28   13   15 1    
    29   14   83 1    
    30   15   16 1    
    31   15   84 1    
    32   15   85 1    
    33   16   17 1    
    34   17   18 1    
    35   17   86 1    
    36   17   87 1    
    37   18   19 1    
    38   18   37 1    
    39   18   88 1    
    40   19   20 am   BACKBONE|DICT|INTERRES
    41   19   89 1    
    42   20   21 2    
    43   20   22 1    
    44   22   23 1    
    45   22   24 1    
    46   22   90 1    
    47   23   91 1    
    48   23   92 1    
    49   23   93 1    
    50   24   25 am   BACKBONE|DICT|INTERRES
    51   24   94 1    
    52   25   26 2    
    53   25   27 1    
    54   27   28 1    
    55   27   29 1    
    56   27   95 1    
    57   28   96 1    
    58   28   97 1    
    59   28   98 1    
    60   29   30 am   BACKBONE|DICT|INTERRES
    61   29   99 1    
    62   30   31 2    
    63   30   32 1    
    64   32   33 1    
    65   32   34 1    
    66   32  100 1    
    67   33  101 1    
    68   33  102 1    
    69   33  103 1    
    70   34   35 am   BACKBONE|DICT|INTERRES
    71   34  104 1    
    72   35   36 2    
    73   37   38 2    
    74   37   39 am   BACKBONE|DICT|INTERRES
    75   39   40 1    
    76   39  105 1    
    77   40   41 1    
    78   40   42 1    
    79   40  106 1    
    80   41  107 1    
    81   41  108 1    
    82   41  109 1    
    83   42   43 2    
    84   42   44 am   BACKBONE|DICT|INTERRES
    85   44   45 1    
    86   44  110 1    
    87   45   46 1    
    88   45   47 1    
    89   45  111 1    
    90   46  112 1    
    91   46  113 1    
    92   46  114 1    
    93   47   48 2    
    94   47   49 am   BACKBONE|DICT|INTERRES
    95   49   50 1    
    96   49  115 1    
    97   50   51 1    
    98   50   52 1    
    99   50  116 1    
   100   51  117 1    
   101   51  118 1    
   102   51  119 1    
   103   52   53 2    
   104   52   54 am   BACKBONE|DICT|INTERRES
   105   54   55 1    
   106   54  120 1    
   107   55   56 1    
   108   55   57 1    
   109   55  121 1    
   110   56  122 1    
   111   56  123 1    
   112   56  124 1    
   113   57   58 2    
   114   57   59 am   BACKBONE|DICT|INTERRES
   115   59   60 1    
   116   59  125 1    
   117   60   61 1    
   118   60   62 1    
   119   60  126 1    
   120   61  127 1    
   121   61  128 1    
   122   61  129 1    
   123   62   63 2    
   124   62   64 am   BACKBONE|DICT|INTERRES
   125   64   65 1    
   126   64  130 1    
   127   65   66 1    
   128   65   69 1    
   129   65  131 1    
   130   66   67 am   BACKBONE|DICT|INTERRES
   131   66   68 2    
   132   67  132 1    
   133   67  133 1    
   134   69   70 1    
   135   69  134 1    
   136   69  135 1    
   137   70   71 1    
   138   71  136 1    
   139   71  137 1    
@<TRIPOS>SUBSTRUCTURE
     1 UNK         1 GROUP             0       ****    0 ROOT    
