@<TRIPOS>MOLECULE
3R137
137   139    1
SMALL
USER_CHARGES


@<TRIPOS>ATOM
      1 CA         28.7749   -9.0130   -2.7953 C.3       0 UNK        -0.2020 
      2 C          28.2776   -7.6452   -2.3539 C.2       0 UNK         0.4855 
      3 O          27.6141   -7.5357   -1.3213 O.2       0 UNK        -0.5197 
      4 N          28.5827   -6.5970   -3.1286 N.am      1 UNK        -0.4892 
      5 CA         28.2055   -5.2024   -2.8668 C.3       1 UNK         0.0835 
      6 C6         29.1503   -4.2032   -3.5813 C.3       12 UNK        -0.0855 
      7 S7         30.9261   -4.4451   -3.2331 S.3       12 UNK        -0.2931 
      8 C8         31.1880   -3.4454   -1.7320 C.3       12 UNK         0.0378 
      9 C9         30.8980   -1.9600   -1.9222 C.ar      12 UNK        -0.0802 
     10 C10        31.6884   -1.1755   -2.7709 C.ar      12 UNK        -0.0944 
     11 C11        31.4522    0.1995   -2.8976 C.ar      12 UNK        -0.0787 
     12 C12        30.4267    0.7879   -2.1498 C.ar      12 UNK        -0.0862 
     13 C13        29.6189    0.0123   -1.3153 C.ar      12 UNK        -0.0733 
     14 C14        29.8578   -1.3599   -1.2068 C.ar      12 UNK        -0.0832 
     15 C15        28.4949    0.6527   -0.5178 C.3       12 UNK         0.0240 
     16 S16        26.9246    0.6100   -1.4340 S.3       12 UNK        -0.2522 
     17 C17        27.0953    2.0399   -2.5596 C.3       12 UNK        -0.0967 
     18 CA         27.2775    1.6459   -4.0515 C.3       5 UNK         0.0660 
     19 N          26.2004    0.7574   -4.4884 N.am      5 UNK        -0.4015 
     20 C          26.1806   -0.0455   -5.5578 C.2       4 UNK         0.4946 
     21 O          27.0384   -0.0291   -6.4440 O.2       4 UNK        -0.5353 
     22 CA         25.0219   -1.0641   -5.6185 C.3       4 UNK         0.0277 
     23 CB         25.2699   -2.1762   -6.6540 C.3       4 UNK        -0.1981 
     24 N          24.7641   -1.6881   -4.3126 N.am      4 UNK        -0.4209 
     25 C          24.0197   -1.1515   -3.3325 C.2       3 UNK         0.4942 
     26 O          23.4958   -0.0409   -3.4353 O.2       3 UNK        -0.5208 
     27 CA         23.8772   -1.9255   -2.0025 C.3       3 UNK         0.0250 
     28 CB         22.4835   -1.7432   -1.3639 C.3       3 UNK        -0.1990 
     29 N          24.2412   -3.3457   -2.0789 N.am      3 UNK        -0.4232 
     30 C          23.6560   -4.3064   -2.8106 C.2       2 UNK         0.4993 
     31 O          22.6359   -4.1334   -3.4797 O.2       2 UNK        -0.5286 
     32 CA         24.3491   -5.6876   -2.8127 C.3       2 UNK         0.0209 
     33 CB         24.0595   -6.4794   -4.1059 C.3       2 UNK        -0.1931 
     34 N          25.8026   -5.6501   -2.5708 N.am      2 UNK        -0.4546 
     35 C          26.7269   -4.9493   -3.2459 C.2       1 UNK         0.5154 
     36 O          26.4460   -4.1415   -4.1339 O.2       1 UNK        -0.5181 
     37 C          27.3937    2.8921   -4.9560 C.2       5 UNK         0.5014 
     38 O          27.0496    3.9958   -4.5255 O.2       5 UNK        -0.5248 
     39 N          27.8586    2.7048   -6.1939 N.am      6 UNK        -0.4434 
     40 CA         28.0734    3.7623   -7.1749 C.3       6 UNK         0.0363 
     41 CB         26.7828    3.9887   -7.9829 C.3       6 UNK        -0.1936 
     42 C          29.2385    3.3938   -8.0968 C.2       6 UNK         0.5081 
     43 O          29.5586    2.2109   -8.2585 O.2       6 UNK        -0.5248 
     44 N          29.8319    4.4231   -8.7141 N.am      7 UNK        -0.4718 
     45 CA         30.8386    4.2935   -9.7676 C.3       7 UNK         0.0273 
     46 CB         31.4161    5.6784  -10.0984 C.3       7 UNK        -0.1935 
     47 C          30.2298    3.6414  -11.0188 C.2       7 UNK         0.5018 
     48 O          29.1067    3.9838  -11.3946 O.2       7 UNK        -0.5186 
     49 N          30.9723    2.6937  -11.6052 N.am      8 UNK        -0.4240 
     50 CA         30.5765    1.7944  -12.7004 C.3       8 UNK         0.0235 
     51 CB         30.1606    2.5747  -13.9663 C.3       8 UNK        -0.2000 
     52 C          29.5337    0.7259  -12.3028 C.2       8 UNK         0.4941 
     53 O          29.1503   -0.0735  -13.1587 O.2       8 UNK        -0.5273 
     54 N          29.1304    0.6911  -11.0252 N.am      9 UNK        -0.4262 
     55 CA         28.3766   -0.3909  -10.4005 C.3       9 UNK         0.0264 
     56 CB         27.1467    0.1893   -9.6790 C.3       9 UNK        -0.1955 
     57 C          29.3666   -1.1445   -9.4984 C.2       9 UNK         0.5031 
     58 O          30.3119   -1.7277  -10.0343 O.2       9 UNK        -0.5390 
     59 N          29.1881   -1.1118   -8.1691 N.am      10 UNK        -0.4204 
     60 CA         30.1246   -1.7176   -7.2149 C.3       10 UNK         0.0237 
     61 CB         29.5382   -1.6604   -5.7990 C.3       10 UNK        -0.1985 
     62 C          31.5133   -1.0590   -7.1968 C.2       10 UNK         0.4970 
     63 O          32.5007   -1.7537   -6.9518 O.2       10 UNK        -0.4914 
     64 N          31.5589    0.2600   -7.4169 N.am      11 UNK        -0.4285 
     65 CA         32.7540    1.0933   -7.2201 C.3       11 UNK         0.1007 
     66 C          33.4949    1.4385   -8.5423 C.2       11 UNK         0.5703 
     67 N          33.1231    0.8654   -9.6825 N.am      11 UNK        -0.7361 
     68 O          34.4354    2.2285   -8.5360 O.2       11 UNK        -0.4986 
     69 C69        32.4520    2.3542   -6.3566 C.3       12 UNK        -0.0947 
     70 S70        31.3057    2.0592   -4.9617 S.3       12 UNK        -0.2240 
     71 C71        32.3144    1.0480   -3.8276 C.3       12 UNK         0.0194 
     72 H72        29.3507   -8.9593   -3.7190 H         1 UNK         0.0906 
     73 H73        29.4109   -9.4471   -2.0243 H         1 UNK         0.0906 
     74 H74        27.9317   -9.6836   -2.9592 H         1 UNK         0.0906 
     75 H75        29.1257   -6.7431   -3.9681 H         1 UNK         0.3140 
     76 H76        28.2916   -5.0182   -1.7936 H         1 UNK         0.1085 
     77 H77        28.8720   -3.1770   -3.3349 H         1 UNK         0.0836 
     78 H78        29.0307   -4.2954   -4.6624 H         1 UNK         0.0836 
     79 H79        32.2257   -3.5608   -1.4161 H         1 UNK         0.0731 
     80 H80        30.5810   -3.8607   -0.9261 H         1 UNK         0.0731 
     81 H81        32.4887   -1.6404   -3.3306 H         1 UNK         0.1312 
     82 H82        30.2493    1.8513   -2.2305 H         1 UNK         0.1406 
     83 H83        29.2388   -1.9571   -0.5510 H         1 UNK         0.1631 
     84 H84        28.7469    1.6787   -0.2455 H         1 UNK         0.0717 
     85 H85        28.3618    0.1179    0.4239 H         1 UNK         0.0717 
     86 H86        26.1976    2.6493   -2.4353 H         1 UNK         0.0934 
     87 H87        27.9242    2.6684   -2.2301 H         1 UNK         0.0934 
     88 H88        28.2168    1.0960   -4.1385 H         1 UNK         0.0739 
     89 H89        25.4117    0.6896   -3.8564 H         1 UNK         0.3093 
     90 H90        24.1305   -0.5158   -5.9299 H         1 UNK         0.0818 
     91 H91        26.2052   -2.7038   -6.4635 H         1 UNK         0.0819 
     92 H92        24.4650   -2.9114   -6.6481 H         1 UNK         0.0819 
     93 H93        25.3227   -1.7669   -7.6619 H         1 UNK         0.0819 
     94 H94        25.2236   -2.5806   -4.1510 H         1 UNK         0.3041 
     95 H95        24.6032   -1.4736   -1.3252 H         1 UNK         0.0784 
     96 H96        22.2825   -0.6917   -1.1550 H         1 UNK         0.0793 
     97 H97        21.6876   -2.1001   -2.0180 H         1 UNK         0.0793 
     98 H98        22.4068   -2.2787   -0.4177 H         1 UNK         0.0793 
     99 H99        25.0760   -3.6049   -1.5723 H         1 UNK         0.3024 
    100 H100       23.9110   -6.2406   -1.9801 H         1 UNK         0.1171 
    101 H101       24.5322   -7.4613   -4.0842 H         1 UNK         0.0786 
    102 H102       22.9891   -6.6416   -4.2391 H         1 UNK         0.0786 
    103 H103       24.4220   -5.9520   -4.9892 H         1 UNK         0.0786 
    104 H104       26.1555   -6.3067   -1.8788 H         1 UNK         0.2977 
    105 H105       28.0884    1.7644   -6.5009 H         1 UNK         0.3127 
    106 H106       28.3418    4.6856   -6.6566 H         1 UNK         0.0770 
    107 H107       26.4651    3.0817   -8.4975 H         1 UNK         0.0814 
    108 H108       26.9211    4.7611   -8.7406 H         1 UNK         0.0814 
    109 H109       25.9642    4.3108   -7.3392 H         1 UNK         0.0814 
    110 H110       29.4792    5.3544   -8.5470 H         1 UNK         0.2983 
    111 H111       31.6442    3.6625   -9.3882 H         1 UNK         0.0947 
    112 H112       32.1887    5.6055  -10.8651 H         1 UNK         0.0806 
    113 H113       31.8736    6.1379   -9.2220 H         1 UNK         0.0806 
    114 H114       30.6487    6.3573  -10.4731 H         1 UNK         0.0806 
    115 H115       31.8786    2.4954  -11.2032 H         1 UNK         0.3000 
    116 H116       31.4788    1.2351  -12.9524 H         1 UNK         0.0850 
    117 H117       30.0509    1.9026  -14.8183 H         1 UNK         0.0810 
    118 H118       30.9076    3.3203  -14.2380 H         1 UNK         0.0810 
    119 H119       29.2057    3.0847  -13.8377 H         1 UNK         0.0810 
    120 H120       29.4977    1.3829  -10.3840 H         1 UNK         0.3040 
    121 H121       28.0225   -1.1011  -11.1504 H         1 UNK         0.0766 
    122 H122       26.5621   -0.6003   -9.2092 H         1 UNK         0.0812 
    123 H123       26.4878    0.6988  -10.3820 H         1 UNK         0.0812 
    124 H124       27.4171    0.9082   -8.9080 H         1 UNK         0.0812 
    125 H125       28.3891   -0.6231   -7.7716 H         1 UNK         0.3205 
    126 H126       30.2550   -2.7662   -7.4903 H         1 UNK         0.0754 
    127 H127       29.3977   -0.6336   -5.4604 H         1 UNK         0.0769 
    128 H128       30.2156   -2.1324   -5.0886 H         1 UNK         0.0769 
    129 H129       28.5794   -2.1742   -5.7386 H         1 UNK         0.0769 
    130 H130       30.7084    0.7683   -7.6413 H         1 UNK         0.2981 
    131 H131       33.4877    0.5147   -6.6580 H         1 UNK         0.0541 
    132 H132       32.3973    0.1650   -9.6808 H         1 UNK         0.3459 
    133 H133       33.6616    1.0415  -10.5154 H         1 UNK         0.3459 
    134 H134       33.3783    2.7756   -5.9628 H         1 UNK         0.0612 
    135 H135       32.0058    3.1356   -6.9723 H         1 UNK         0.0612 
    136 H136       32.9533    1.7034   -3.2347 H         1 UNK         0.0624 
    137 H137       32.9770    0.4051   -4.4070 H         1 UNK         0.0624 
@<TRIPOS>BOND
     1    1    2 1    
     2    1   72 1    
     3    1   73 1    
     4    1   74 1    
     5    2    3 2    
     6    2    4 am   BACKBONE|DICT|INTERRES
     7    4    5 1    
     8    4   75 1    
     9    5    6 1    
    10    5   35 1    
    11    5   76 1    
    12    6    7 1    
    13    6   77 1    
    14    6   78 1    
    15    7    8 1    
    16    8    9 1    
    17    8   79 1    
    18    8   80 1    
    19    9   10 ar   
    20    9   14 ar   
    21   10   11 ar   
    22   10   81 1    
    23   11   12 ar   
    24   11   71 1    
    25   12   13 ar   
    26   12   82 1    
    27   13   14 ar   
    28   13   15 1    
    29   14   83 1    
    30   15   16 1    
    31   15   84 1    
    32   15   85 1    
    33   16   17 1    
    34   17   18 1    
    35   17   86 1    
    36   17   87 1    
    37   18   19 1    
    38   18   37 1    
    39   18   88 1    
    40   19   20 am   BACKBONE|DICT|INTERRES
    41   19   89 1    
    42   20   21 2    
    43   20   22 1    
    44   22   23 1    
    45   22   24 1    
    46   22   90 1    
    47   23   91 1    
    48   23   92 1    
    49   23   93 1    
    50   24   25 am   BACKBONE|DICT|INTERRES
    51   24   94 1    
    52   25   26 2    
    53   25   27 1    
    54   27   28 1    
    55   27   29 1    
    56   27   95 1    
    57   28   96 1    
    58   28   97 1    
    59   28   98 1    
    60   29   30 am   BACKBONE|DICT|INTERRES
    61   29   99 1    
    62   30   31 2    
    63   30   32 1    
    64   32   33 1    
    65   32   34 1    
    66   32  100 1    
    67   33  101 1    
    68   33  102 1    
    69   33  103 1    
    70   34   35 am   BACKBONE|DICT|INTERRES
    71   34  104 1    
    72   35   36 2    
    73   37   38 2    
    74   37   39 am   BACKBONE|DICT|INTERRES
    75   39   40 1    
    76   39  105 1    
    77   40   41 1    
    78   40   42 1    
    79   40  106 1    
    80   41  107 1    
    81   41  108 1    
    82   41  109 1    
    83   42   43 2    
    84   42   44 am   BACKBONE|DICT|INTERRES
    85   44   45 1    
    86   44  110 1    
    87   45   46 1    
    88   45   47 1    
    89   45  111 1    
    90   46  112 1    
    91   46  113 1    
    92   46  114 1    
    93   47   48 2    
    94   47   49 am   BACKBONE|DICT|INTERRES
    95   49   50 1    
    96   49  115 1    
    97   50   51 1    
    98   50   52 1    
    99   50  116 1    
   100   51  117 1    
   101   51  118 1    
   102   51  119 1    
   103   52   53 2    
   104   52   54 am   BACKBONE|DICT|INTERRES
   105   54   55 1    
   106   54  120 1    
   107   55   56 1    
   108   55   57 1    
   109   55  121 1    
   110   56  122 1    
   111   56  123 1    
   112   56  124 1    
   113   57   58 2    
   114   57   59 am   BACKBONE|DICT|INTERRES
   115   59   60 1    
   116   59  125 1    
   117   60   61 1    
   118   60   62 1    
   119   60  126 1    
   120   61  127 1    
   121   61  128 1    
   122   61  129 1    
   123   62   63 2    
   124   62   64 am   BACKBONE|DICT|INTERRES
   125   64   65 1    
   126   64  130 1    
   127   65   66 1    
   128   65   69 1    
   129   65  131 1    
   130   66   67 am   BACKBONE|DICT|INTERRES
   131   66   68 2    
   132   67  132 1    
   133   67  133 1    
   134   69   70 1    
   135   69  134 1    
   136   69  135 1    
   137   70   71 1    
   138   71  136 1    
   139   71  137 1    
@<TRIPOS>SUBSTRUCTURE
     1 UNK         1 GROUP             0       ****    0 ROOT    
