@<TRIPOS>MOLECULE
3R137
137   139    1
SMALL
USER_CHARGES


@<TRIPOS>ATOM
      1 CA         26.0045   -3.1936    0.0680 C.3       0 UNK        -0.2020 
      2 C          25.6549   -3.4432   -1.3907 C.2       0 UNK         0.4855 
      3 O          24.5085   -3.7756   -1.6953 O.2       0 UNK        -0.5197 
      4 N          26.6316   -3.2724   -2.2910 N.am      1 UNK        -0.4892 
      5 CA         26.5354   -3.4638   -3.7449 C.3       1 UNK         0.0835 
      6 C6         26.2873   -4.9378   -4.1883 C.3       12 UNK        -0.0855 
      7 S7         27.3972   -6.1521   -3.3858 S.3       12 UNK        -0.2931 
      8 C8         28.8974   -6.0996   -4.4242 C.3       12 UNK         0.0378 
      9 C9         29.5847   -4.7415   -4.3725 C.ar      12 UNK        -0.0802 
     10 C10        29.8020   -4.0204   -5.5500 C.ar      12 UNK        -0.0944 
     11 C11        30.3605   -2.7396   -5.5070 C.ar      12 UNK        -0.0787 
     12 C12        30.7129   -2.1867   -4.2715 C.ar      12 UNK        -0.0862 
     13 C13        30.5114   -2.9012   -3.0861 C.ar      12 UNK        -0.0733 
     14 C14        29.9631   -4.1850   -3.1456 C.ar      12 UNK        -0.0832 
     15 C15        30.8774   -2.2913   -1.7392 C.3       12 UNK         0.0240 
     16 S16        29.4908   -1.3502   -1.0160 S.3       12 UNK        -0.2522 
     17 C17        29.5111    0.1614   -2.0369 C.3       12 UNK        -0.0967 
     18 CA         28.3567    0.1496   -3.0801 C.3       5 UNK         0.0660 
     19 N          27.0561    0.6071   -2.5633 N.am      5 UNK        -0.4015 
     20 C          26.7675    1.8465   -2.1344 C.2       4 UNK         0.4946 
     21 O          27.6172    2.7121   -1.9195 O.2       4 UNK        -0.5353 
     22 CA         25.2861    2.2309   -1.9620 C.3       4 UNK         0.0277 
     23 CB         24.8816    3.2713   -3.0209 C.3       4 UNK        -0.1981 
     24 N          24.3472    1.1111   -2.0430 N.am      4 UNK        -0.4209 
     25 C          24.0316    0.2941   -1.0334 C.2       3 UNK         0.4942 
     26 O          24.5806    0.3284    0.0676 O.2       3 UNK        -0.5208 
     27 CA         22.9115   -0.7322   -1.2833 C.3       3 UNK         0.0250 
     28 CB         21.5202   -0.0993   -1.0859 C.3       3 UNK        -0.1990 
     29 N          23.0127   -1.4411   -2.5667 N.am      3 UNK        -0.4232 
     30 C          22.8696   -0.9741   -3.8182 C.2       2 UNK         0.4993 
     31 O          22.5804    0.1939   -4.0841 O.2       2 UNK        -0.5286 
     32 CA         23.1702   -1.9781   -4.9531 C.3       2 UNK         0.0209 
     33 CB         23.3703   -1.2991   -6.3270 C.3       2 UNK        -0.1931 
     34 N          24.3081   -2.8490   -4.6206 N.am      2 UNK        -0.4546 
     35 C          25.5567   -2.4398   -4.3502 C.2       1 UNK         0.5154 
     36 O          25.9411   -1.2793   -4.5081 O.2       1 UNK        -0.5181 
     37 C          28.6734    0.8871   -4.3992 C.2       5 UNK         0.5014 
     38 O          29.7318    1.5001   -4.5452 O.2       5 UNK        -0.5248 
     39 N          27.7124    0.8215   -5.3297 N.am      6 UNK        -0.4434 
     40 CA         27.7272    1.5186   -6.6152 C.3       6 UNK         0.0363 
     41 CB         27.0213    2.8802   -6.4685 C.3       6 UNK        -0.1936 
     42 C          27.1161    0.6552   -7.7313 C.2       6 UNK         0.5081 
     43 O          26.6088    1.1993   -8.7123 O.2       6 UNK        -0.5248 
     44 N          27.1814   -0.6773   -7.5822 N.am      7 UNK        -0.4718 
     45 CA         26.7148   -1.6528   -8.5775 C.3       7 UNK         0.0273 
     46 CB         26.6811   -3.0527   -7.9431 C.3       7 UNK        -0.1935 
     47 C          27.5426   -1.6701   -9.8789 C.2       7 UNK         0.5018 
     48 O          27.0564   -2.1714  -10.8934 O.2       7 UNK        -0.5186 
     49 N          28.7616   -1.1228   -9.8321 N.am      8 UNK        -0.4240 
     50 CA         29.6477   -0.9008  -10.9658 C.3       8 UNK         0.0235 
     51 CB         30.6445   -2.0668  -11.0827 C.3       8 UNK        -0.2000 
     52 C          30.3799    0.4197  -10.7166 C.2       8 UNK         0.4941 
     53 O          30.6875    0.7303   -9.5626 O.2       8 UNK        -0.5273 
     54 N          30.6823    1.1542  -11.7958 N.am      9 UNK        -0.4262 
     55 CA         31.3951    2.4385  -11.7553 C.3       9 UNK         0.0264 
     56 CB         31.3781    3.0785  -13.1528 C.3       9 UNK        -0.1955 
     57 C          32.8382    2.3275  -11.2312 C.2       9 UNK         0.5031 
     58 O          33.3430    3.2809  -10.6362 O.2       9 UNK        -0.5390 
     59 N          33.4571    1.1529  -11.4209 N.am      10 UNK        -0.4204 
     60 CA         34.7864    0.7937  -10.9192 C.3       10 UNK         0.0237 
     61 CB         35.1697   -0.5910  -11.4673 C.3       10 UNK        -0.1985 
     62 C          34.9094    0.8143   -9.3833 C.2       10 UNK         0.4970 
     63 O          36.0262    0.9450   -8.8803 O.2       10 UNK        -0.4914 
     64 N          33.7809    0.6977   -8.6700 N.am      11 UNK        -0.4285 
     65 CA         33.7075    0.8199   -7.2072 C.3       11 UNK         0.1007 
     66 C          33.8227    2.2844   -6.6892 C.2       11 UNK         0.5703 
     67 N          33.7583    3.3063   -7.5374 N.am      11 UNK        -0.7361 
     68 O          33.9914    2.4969   -5.4909 O.2       11 UNK        -0.4986 
     69 C69        32.4468    0.1246   -6.6320 C.3       12 UNK        -0.0947 
     70 S70        32.3019   -1.6206   -7.1504 S.3       12 UNK        -0.2240 
     71 C71        30.5492   -1.9490   -6.7945 C.3       12 UNK         0.0194 
     72 H72        27.0522   -2.9233    0.1973 H         1 UNK         0.0906 
     73 H73        25.3947   -2.3842    0.4680 H         1 UNK         0.0906 
     74 H74        25.8111   -4.0895    0.6571 H         1 UNK         0.0906 
     75 H75        27.5434   -2.9826   -1.9639 H         1 UNK         0.3140 
     76 H76        27.5024   -3.1650   -4.1422 H         1 UNK         0.1085 
     77 H77        26.3842   -5.0325   -5.2715 H         1 UNK         0.0836 
     78 H78        25.2709   -5.2500   -3.9445 H         1 UNK         0.0836 
     79 H79        28.6314   -6.3694   -5.4474 H         1 UNK         0.0731 
     80 H80        29.5958   -6.8614   -4.0753 H         1 UNK         0.0731 
     81 H81        29.5182   -4.4510   -6.5003 H         1 UNK         0.1312 
     82 H82        31.1402   -1.1956   -4.2347 H         1 UNK         0.1406 
     83 H83        29.7943   -4.7409   -2.2329 H         1 UNK         0.1631 
     84 H84        31.7554   -1.6507   -1.8349 H         1 UNK         0.0717 
     85 H85        31.1603   -3.0818   -1.0424 H         1 UNK         0.0717 
     86 H86        29.4528    1.0285   -1.3795 H         1 UNK         0.0934 
     87 H87        30.4899    0.2368   -2.5112 H         1 UNK         0.0934 
     88 H88        28.2160   -0.8863   -3.3858 H         1 UNK         0.0739 
     89 H89        26.2812   -0.0143   -2.7546 H         1 UNK         0.3093 
     90 H90        25.1903    2.6953   -0.9781 H         1 UNK         0.0818 
     91 H91        24.9279    2.8571   -4.0284 H         1 UNK         0.0819 
     92 H92        23.8666    3.6322   -2.8541 H         1 UNK         0.0819 
     93 H93        25.5402    4.1407   -2.9941 H         1 UNK         0.0819 
     94 H94        23.8215    1.0006   -2.9079 H         1 UNK         0.3041 
     95 H95        23.0254   -1.5040   -0.5202 H         1 UNK         0.0784 
     96 H96        21.4275    0.3282   -0.0866 H         1 UNK         0.0793 
     97 H97        21.3285    0.7036   -1.7983 H         1 UNK         0.0793 
     98 H98        20.7289   -0.8407   -1.1955 H         1 UNK         0.0793 
     99 H99        23.3357   -2.4009   -2.4698 H         1 UNK         0.3024 
    100 H100       22.2914   -2.6209   -5.0271 H         1 UNK         0.1171 
    101 H101       23.5773   -2.0329   -7.1055 H         1 UNK         0.0786 
    102 H102       22.4732   -0.7559   -6.6261 H         1 UNK         0.0786 
    103 H103       24.1911   -0.5815   -6.3165 H         1 UNK         0.0786 
    104 H104       24.0762   -3.8126   -4.4216 H         1 UNK         0.2977 
    105 H105       26.8903    0.2531   -5.1312 H         1 UNK         0.3127 
    106 H106       28.7618    1.7005   -6.9150 H         1 UNK         0.0770 
    107 H107       25.9599    2.7582   -6.2514 H         1 UNK         0.0814 
    108 H108       27.1021    3.4652   -7.3855 H         1 UNK         0.0814 
    109 H109       27.4629    3.4741   -5.6681 H         1 UNK         0.0814 
    110 H110       27.5894   -1.0478   -6.7371 H         1 UNK         0.2983 
    111 H111       25.6940   -1.3826   -8.8575 H         1 UNK         0.0947 
    112 H112       26.3760   -3.8058   -8.6713 H         1 UNK         0.0806 
    113 H113       25.9646   -3.0982   -7.1255 H         1 UNK         0.0806 
    114 H114       27.6569   -3.3484   -7.5601 H         1 UNK         0.0806 
    115 H115       29.0644   -0.6693   -8.9804 H         1 UNK         0.3000 
    116 H116       29.0631   -0.8176  -11.8848 H         1 UNK         0.0850 
    117 H117       31.3146   -1.9278  -11.9318 H         1 UNK         0.0810 
    118 H118       30.1273   -3.0151  -11.2304 H         1 UNK         0.0810 
    119 H119       31.2628   -2.1601  -10.1885 H         1 UNK         0.0810 
    120 H120       30.3951    0.8254  -12.7072 H         1 UNK         0.3040 
    121 H121       30.8534    3.0958  -11.0715 H         1 UNK         0.0766 
    122 H122       31.8813    4.0465  -13.1441 H         1 UNK         0.0812 
    123 H123       30.3587    3.2499  -13.4992 H         1 UNK         0.0812 
    124 H124       31.8848    2.4551  -13.8906 H         1 UNK         0.0812 
    125 H125       32.9567    0.4362  -11.9253 H         1 UNK         0.3205 
    126 H126       35.4944    1.5277  -11.3095 H         1 UNK         0.0754 
    127 H127       34.4802   -1.3648  -11.1266 H         1 UNK         0.0769 
    128 H128       36.1696   -0.8784  -11.1385 H         1 UNK         0.0769 
    129 H129       35.1757   -0.6003  -12.5575 H         1 UNK         0.0769 
    130 H130       32.8920    0.6080   -9.1455 H         1 UNK         0.2981 
    131 H131       34.5717    0.2949   -6.7957 H         1 UNK         0.0541 
    132 H132       33.6289    3.1562   -8.5307 H         1 UNK         0.3459 
    133 H133       33.8424    4.2446   -7.1807 H         1 UNK         0.3459 
    134 H134       31.5513    0.6653   -6.9438 H         1 UNK         0.0612 
    135 H135       32.4613    0.1558   -5.5418 H         1 UNK         0.0612 
    136 H136       30.1346   -2.4967   -7.6417 H         1 UNK         0.0624 
    137 H137       29.9906   -1.0151   -6.7331 H         1 UNK         0.0624 
@<TRIPOS>BOND
     1    1    2 1    
     2    1   72 1    
     3    1   73 1    
     4    1   74 1    
     5    2    3 2    
     6    2    4 am   BACKBONE|DICT|INTERRES
     7    4    5 1    
     8    4   75 1    
     9    5    6 1    
    10    5   35 1    
    11    5   76 1    
    12    6    7 1    
    13    6   77 1    
    14    6   78 1    
    15    7    8 1    
    16    8    9 1    
    17    8   79 1    
    18    8   80 1    
    19    9   10 ar   
    20    9   14 ar   
    21   10   11 ar   
    22   10   81 1    
    23   11   12 ar   
    24   11   71 1    
    25   12   13 ar   
    26   12   82 1    
    27   13   14 ar   
    28   13   15 1    
    29   14   83 1    
    30   15   16 1    
    31   15   84 1    
    32   15   85 1    
    33   16   17 1    
    34   17   18 1    
    35   17   86 1    
    36   17   87 1    
    37   18   19 1    
    38   18   37 1    
    39   18   88 1    
    40   19   20 am   BACKBONE|DICT|INTERRES
    41   19   89 1    
    42   20   21 2    
    43   20   22 1    
    44   22   23 1    
    45   22   24 1    
    46   22   90 1    
    47   23   91 1    
    48   23   92 1    
    49   23   93 1    
    50   24   25 am   BACKBONE|DICT|INTERRES
    51   24   94 1    
    52   25   26 2    
    53   25   27 1    
    54   27   28 1    
    55   27   29 1    
    56   27   95 1    
    57   28   96 1    
    58   28   97 1    
    59   28   98 1    
    60   29   30 am   BACKBONE|DICT|INTERRES
    61   29   99 1    
    62   30   31 2    
    63   30   32 1    
    64   32   33 1    
    65   32   34 1    
    66   32  100 1    
    67   33  101 1    
    68   33  102 1    
    69   33  103 1    
    70   34   35 am   BACKBONE|DICT|INTERRES
    71   34  104 1    
    72   35   36 2    
    73   37   38 2    
    74   37   39 am   BACKBONE|DICT|INTERRES
    75   39   40 1    
    76   39  105 1    
    77   40   41 1    
    78   40   42 1    
    79   40  106 1    
    80   41  107 1    
    81   41  108 1    
    82   41  109 1    
    83   42   43 2    
    84   42   44 am   BACKBONE|DICT|INTERRES
    85   44   45 1    
    86   44  110 1    
    87   45   46 1    
    88   45   47 1    
    89   45  111 1    
    90   46  112 1    
    91   46  113 1    
    92   46  114 1    
    93   47   48 2    
    94   47   49 am   BACKBONE|DICT|INTERRES
    95   49   50 1    
    96   49  115 1    
    97   50   51 1    
    98   50   52 1    
    99   50  116 1    
   100   51  117 1    
   101   51  118 1    
   102   51  119 1    
   103   52   53 2    
   104   52   54 am   BACKBONE|DICT|INTERRES
   105   54   55 1    
   106   54  120 1    
   107   55   56 1    
   108   55   57 1    
   109   55  121 1    
   110   56  122 1    
   111   56  123 1    
   112   56  124 1    
   113   57   58 2    
   114   57   59 am   BACKBONE|DICT|INTERRES
   115   59   60 1    
   116   59  125 1    
   117   60   61 1    
   118   60   62 1    
   119   60  126 1    
   120   61  127 1    
   121   61  128 1    
   122   61  129 1    
   123   62   63 2    
   124   62   64 am   BACKBONE|DICT|INTERRES
   125   64   65 1    
   126   64  130 1    
   127   65   66 1    
   128   65   69 1    
   129   65  131 1    
   130   66   67 am   BACKBONE|DICT|INTERRES
   131   66   68 2    
   132   67  132 1    
   133   67  133 1    
   134   69   70 1    
   135   69  134 1    
   136   69  135 1    
   137   70   71 1    
   138   71  136 1    
   139   71  137 1    
@<TRIPOS>SUBSTRUCTURE
     1 UNK         1 GROUP             0       ****    0 ROOT    
