@<TRIPOS>MOLECULE
3R137
137   139    1
SMALL
USER_CHARGES


@<TRIPOS>ATOM
      1 CA         23.2374   -3.3342   -6.0578 C.3       0 UNK        -0.2020 
      2 C          24.1140   -3.3694   -4.8173 C.2       0 UNK         0.4855 
      3 O          24.0652   -2.4465   -4.0032 O.2       0 UNK        -0.5197 
      4 N          24.8965   -4.4439   -4.6499 N.am      1 UNK        -0.4892 
      5 CA         25.8141   -4.6982   -3.5229 C.3       1 UNK         0.0835 
      6 C6         26.9486   -3.6458   -3.4019 C.3       12 UNK        -0.0855 
      7 S7         27.9709   -3.5110   -4.9115 S.3       12 UNK        -0.2931 
      8 C8         29.6575   -3.6691   -4.2290 C.3       12 UNK         0.0378 
      9 C9         30.2295   -2.3256   -3.7890 C.ar      12 UNK        -0.0802 
     10 C10        31.3866   -1.8260   -4.3950 C.ar      12 UNK        -0.0944 
     11 C11        31.9059   -0.5839   -4.0199 C.ar      12 UNK        -0.0787 
     12 C12        31.2525    0.1699   -3.0412 C.ar      12 UNK        -0.0862 
     13 C13        30.0996   -0.3186   -2.4202 C.ar      12 UNK        -0.0733 
     14 C14        29.6123   -1.5784   -2.7796 C.ar      12 UNK        -0.0832 
     15 C15        29.3887    0.5232   -1.3643 C.3       12 UNK         0.0240 
     16 S16        27.5840    0.6561   -1.6205 S.3       12 UNK        -0.2522 
     17 C17        27.4664    1.2831   -3.3328 C.3       12 UNK        -0.0967 
     18 CA         26.6341    0.3239   -4.2302 C.3       5 UNK         0.0660 
     19 N          25.2292    0.1896   -3.8092 N.am      5 UNK        -0.4015 
     20 C          24.3085    1.1662   -3.8055 C.2       4 UNK         0.4946 
     21 O          24.5339    2.3328   -4.1315 O.2       4 UNK        -0.5353 
     22 CA         22.8774    0.7862   -3.3886 C.3       4 UNK         0.0277 
     23 CB         22.0395    0.4181   -4.6243 C.3       4 UNK        -0.1981 
     24 N          22.7928   -0.2960   -2.4024 N.am      4 UNK        -0.4209 
     25 C          23.1777   -0.1854   -1.1227 C.2       3 UNK         0.4942 
     26 O          23.7264    0.8144   -0.6589 O.2       3 UNK        -0.5208 
     27 CA         22.8449   -1.3491   -0.1782 C.3       3 UNK         0.0250 
     28 CB         21.4426   -1.1133    0.4279 C.3       3 UNK        -0.1990 
     29 N          22.9333   -2.6663   -0.8244 N.am      3 UNK        -0.4232 
     30 C          22.8370   -3.8365   -0.1717 C.2       2 UNK         0.4993 
     31 O          22.6916   -3.9330    1.0478 O.2       2 UNK        -0.5286 
     32 CA         22.9072   -5.1301   -1.0030 C.3       2 UNK         0.0209 
     33 CB         21.4971   -5.5694   -1.4307 C.3       2 UNK        -0.1931 
     34 N          23.7565   -5.0182   -2.1882 N.am      2 UNK        -0.4546 
     35 C          25.0909   -4.8950   -2.1669 C.2       1 UNK         0.5154 
     36 O          25.7494   -4.9402   -1.1264 O.2       1 UNK        -0.5181 
     37 C          26.7222    0.6569   -5.7357 C.2       5 UNK         0.5014 
     38 O          27.4416    1.5723   -6.1408 O.2       5 UNK        -0.5248 
     39 N          25.9681   -0.1055   -6.5421 N.am      6 UNK        -0.4434 
     40 CA         25.7971    0.0805   -7.9879 C.3       6 UNK         0.0363 
     41 CB         24.5770   -0.7320   -8.4531 C.3       6 UNK        -0.1936 
     42 C          27.0345   -0.2537   -8.8451 C.2       6 UNK         0.5081 
     43 O          26.9800   -0.0654  -10.0608 O.2       6 UNK        -0.5248 
     44 N          28.1179   -0.7381   -8.2202 N.am      7 UNK        -0.4718 
     45 CA         29.4149   -1.0148   -8.8457 C.3       7 UNK         0.0273 
     46 CB         30.3625   -1.5969   -7.7858 C.3       7 UNK        -0.1935 
     47 C          30.0421    0.2179   -9.5241 C.2       7 UNK         0.5018 
     48 O          30.6028    0.0805  -10.6129 O.2       7 UNK        -0.5186 
     49 N          29.8940    1.3931   -8.8896 N.am      8 UNK        -0.4240 
     50 CA         30.2560    2.7275   -9.3838 C.3       8 UNK         0.0235 
     51 CB         29.1939    3.2094  -10.3975 C.3       8 UNK        -0.2000 
     52 C          31.7000    2.7971   -9.9188 C.2       8 UNK         0.4941 
     53 O          32.6384    2.7779   -9.1236 O.2       8 UNK        -0.5273 
     54 N          31.8607    2.8415  -11.2492 N.am      9 UNK        -0.4262 
     55 CA         33.1489    2.8535  -11.9483 C.3       9 UNK         0.0264 
     56 CB         32.9054    3.0277  -13.4559 C.3       9 UNK        -0.1955 
     57 C          34.0244    1.6135  -11.6854 C.2       9 UNK         0.5031 
     58 O          35.2499    1.7263  -11.7514 O.2       9 UNK        -0.5390 
     59 N          33.4062    0.4675  -11.3571 N.am      10 UNK        -0.4204 
     60 CA         34.1079   -0.7695  -10.9986 C.3       10 UNK         0.0237 
     61 CB         33.1339   -1.9576  -11.0494 C.3       10 UNK        -0.1985 
     62 C          34.8284   -0.7017   -9.6379 C.2       10 UNK         0.4970 
     63 O          35.6741   -1.5588   -9.3776 O.2       10 UNK        -0.4914 
     64 N          34.5177    0.3062   -8.8086 N.am      11 UNK        -0.4285 
     65 CA         35.2553    0.6142   -7.5737 C.3       11 UNK         0.1007 
     66 C          36.6712    1.2180   -7.8168 C.2       11 UNK         0.5703 
     67 N          37.0204    1.6518   -9.0243 N.am      11 UNK        -0.7361 
     68 O          37.4738    1.2861   -6.8888 O.2       11 UNK        -0.4986 
     69 C69        34.4395    1.5162   -6.6109 C.3       12 UNK        -0.0947 
     70 S70        32.7951    0.8442   -6.2003 S.3       12 UNK        -0.2240 
     71 C71        33.1733   -0.0543   -4.6692 C.3       12 UNK         0.0194 
     72 H72        22.2287   -3.6642   -5.8115 H         1 UNK         0.0906 
     73 H73        23.6278   -3.9770   -6.8466 H         1 UNK         0.0906 
     74 H74        23.1726   -2.3214   -6.4486 H         1 UNK         0.0906 
     75 H75        24.8845   -5.1693   -5.3544 H         1 UNK         0.3140 
     76 H76        26.2845   -5.6604   -3.7325 H         1 UNK         0.1085 
     77 H77        27.5993   -3.9077   -2.5665 H         1 UNK         0.0836 
     78 H78        26.5390   -2.6658   -3.1590 H         1 UNK         0.0836 
     79 H79        29.6743   -4.3719   -3.3952 H         1 UNK         0.0731 
     80 H80        30.2880   -4.1105   -5.0023 H         1 UNK         0.0731 
     81 H81        31.8836   -2.3984   -5.1664 H         1 UNK         0.1312 
     82 H82        31.6451    1.1390   -2.7643 H         1 UNK         0.1406 
     83 H83        28.7299   -1.9556   -2.2867 H         1 UNK         0.1631 
     84 H84        29.8037    1.5319   -1.3331 H         1 UNK         0.0717 
     85 H85        29.5724    0.0843   -0.3829 H         1 UNK         0.0717 
     86 H86        27.0305    2.2827   -3.3133 H         1 UNK         0.0934 
     87 H87        28.4718    1.4104   -3.7374 H         1 UNK         0.0934 
     88 H88        27.0797   -0.6658   -4.1388 H         1 UNK         0.0739 
     89 H89        24.9106   -0.7506   -3.5908 H         1 UNK         0.3093 
     90 H90        22.4314    1.6752   -2.9370 H         1 UNK         0.0818 
     91 H91        20.9935    0.2581   -4.3622 H         1 UNK         0.0819 
     92 H92        22.4073   -0.4867   -5.1067 H         1 UNK         0.0819 
     93 H93        22.0668    1.2167   -5.3672 H         1 UNK         0.0819 
     94 H94        22.3533   -1.1482   -2.7167 H         1 UNK         0.3041 
     95 H95        23.5817   -1.3247    0.6277 H         1 UNK         0.0784 
     96 H96        21.3521   -0.1021    0.8278 H         1 UNK         0.0793 
     97 H97        20.6568   -1.2398   -0.3176 H         1 UNK         0.0793 
     98 H98        21.2325   -1.7929    1.2530 H         1 UNK         0.0793 
     99 H99        23.1493   -2.6820   -1.8133 H         1 UNK         0.3024 
    100 H100       23.3272   -5.9065   -0.3589 H         1 UNK         0.1171 
    101 H101       20.8451   -5.6849   -0.5635 H         1 UNK         0.0786 
    102 H102       21.0297   -4.8411   -2.0947 H         1 UNK         0.0786 
    103 H103       21.5194   -6.5297   -1.9463 H         1 UNK         0.0786 
    104 H104       23.2962   -4.9792   -3.0859 H         1 UNK         0.2977 
    105 H105       25.4270   -0.8457   -6.1202 H         1 UNK         0.3127 
    106 H106       25.5807    1.1374   -8.1582 H         1 UNK         0.0770 
    107 H107       24.7304   -1.8027   -8.3145 H         1 UNK         0.0814 
    108 H108       24.3783   -0.5692   -9.5134 H         1 UNK         0.0814 
    109 H109       23.6758   -0.4398   -7.9141 H         1 UNK         0.0814 
    110 H110       28.0599   -0.8748   -7.2219 H         1 UNK         0.2983 
    111 H111       29.2568   -1.7674   -9.6210 H         1 UNK         0.0947 
    112 H112       30.4715   -0.9198   -6.9386 H         1 UNK         0.0806 
    113 H113       31.3595   -1.7715   -8.1899 H         1 UNK         0.0806 
    114 H114       29.9949   -2.5500   -7.4049 H         1 UNK         0.0806 
    115 H115       29.4334    1.3750   -7.9892 H         1 UNK         0.3000 
    116 H116       30.2204    3.3975   -8.5233 H         1 UNK         0.0850 
    117 H117       29.4310    4.2032  -10.7802 H         1 UNK         0.0810 
    118 H118       28.2129    3.2765   -9.9265 H         1 UNK         0.0810 
    119 H119       29.0970    2.5341  -11.2486 H         1 UNK         0.0810 
    120 H120       31.0319    2.8187  -11.8255 H         1 UNK         0.3040 
    121 H121       33.7056    3.7217  -11.5892 H         1 UNK         0.0766 
    122 H122       33.8495    3.0678  -14.0015 H         1 UNK         0.0812 
    123 H123       32.3719    3.9543  -13.6687 H         1 UNK         0.0812 
    124 H124       32.3254    2.2015  -13.8693 H         1 UNK         0.0812 
    125 H125       32.3916    0.4561  -11.2719 H         1 UNK         0.3205 
    126 H126       34.8773   -0.9417  -11.7543 H         1 UNK         0.0754 
    127 H127       32.3600   -1.8798  -10.2878 H         1 UNK         0.0769 
    128 H128       33.6586   -2.8992  -10.8820 H         1 UNK         0.0769 
    129 H129       32.6430   -2.0288  -12.0202 H         1 UNK         0.0769 
    130 H130       33.8136    0.9841   -9.0765 H         1 UNK         0.2981 
    131 H131       35.4229   -0.3322   -7.0562 H         1 UNK         0.0541 
    132 H132       36.3758    1.6055   -9.8022 H         1 UNK         0.3459 
    133 H133       37.9425    2.0347   -9.1598 H         1 UNK         0.3459 
    134 H134       34.2937    2.5029   -7.0531 H         1 UNK         0.0612 
    135 H135       34.9900    1.6864   -5.6839 H         1 UNK         0.0612 
    136 H136       33.8550   -0.8764   -4.8921 H         1 UNK         0.0624 
    137 H137       33.6979    0.6062   -3.9770 H         1 UNK         0.0624 
@<TRIPOS>BOND
     1    1    2 1    
     2    1   72 1    
     3    1   73 1    
     4    1   74 1    
     5    2    3 2    
     6    2    4 am   BACKBONE|DICT|INTERRES
     7    4    5 1    
     8    4   75 1    
     9    5    6 1    
    10    5   35 1    
    11    5   76 1    
    12    6    7 1    
    13    6   77 1    
    14    6   78 1    
    15    7    8 1    
    16    8    9 1    
    17    8   79 1    
    18    8   80 1    
    19    9   10 ar   
    20    9   14 ar   
    21   10   11 ar   
    22   10   81 1    
    23   11   12 ar   
    24   11   71 1    
    25   12   13 ar   
    26   12   82 1    
    27   13   14 ar   
    28   13   15 1    
    29   14   83 1    
    30   15   16 1    
    31   15   84 1    
    32   15   85 1    
    33   16   17 1    
    34   17   18 1    
    35   17   86 1    
    36   17   87 1    
    37   18   19 1    
    38   18   37 1    
    39   18   88 1    
    40   19   20 am   BACKBONE|DICT|INTERRES
    41   19   89 1    
    42   20   21 2    
    43   20   22 1    
    44   22   23 1    
    45   22   24 1    
    46   22   90 1    
    47   23   91 1    
    48   23   92 1    
    49   23   93 1    
    50   24   25 am   BACKBONE|DICT|INTERRES
    51   24   94 1    
    52   25   26 2    
    53   25   27 1    
    54   27   28 1    
    55   27   29 1    
    56   27   95 1    
    57   28   96 1    
    58   28   97 1    
    59   28   98 1    
    60   29   30 am   BACKBONE|DICT|INTERRES
    61   29   99 1    
    62   30   31 2    
    63   30   32 1    
    64   32   33 1    
    65   32   34 1    
    66   32  100 1    
    67   33  101 1    
    68   33  102 1    
    69   33  103 1    
    70   34   35 am   BACKBONE|DICT|INTERRES
    71   34  104 1    
    72   35   36 2    
    73   37   38 2    
    74   37   39 am   BACKBONE|DICT|INTERRES
    75   39   40 1    
    76   39  105 1    
    77   40   41 1    
    78   40   42 1    
    79   40  106 1    
    80   41  107 1    
    81   41  108 1    
    82   41  109 1    
    83   42   43 2    
    84   42   44 am   BACKBONE|DICT|INTERRES
    85   44   45 1    
    86   44  110 1    
    87   45   46 1    
    88   45   47 1    
    89   45  111 1    
    90   46  112 1    
    91   46  113 1    
    92   46  114 1    
    93   47   48 2    
    94   47   49 am   BACKBONE|DICT|INTERRES
    95   49   50 1    
    96   49  115 1    
    97   50   51 1    
    98   50   52 1    
    99   50  116 1    
   100   51  117 1    
   101   51  118 1    
   102   51  119 1    
   103   52   53 2    
   104   52   54 am   BACKBONE|DICT|INTERRES
   105   54   55 1    
   106   54  120 1    
   107   55   56 1    
   108   55   57 1    
   109   55  121 1    
   110   56  122 1    
   111   56  123 1    
   112   56  124 1    
   113   57   58 2    
   114   57   59 am   BACKBONE|DICT|INTERRES
   115   59   60 1    
   116   59  125 1    
   117   60   61 1    
   118   60   62 1    
   119   60  126 1    
   120   61  127 1    
   121   61  128 1    
   122   61  129 1    
   123   62   63 2    
   124   62   64 am   BACKBONE|DICT|INTERRES
   125   64   65 1    
   126   64  130 1    
   127   65   66 1    
   128   65   69 1    
   129   65  131 1    
   130   66   67 am   BACKBONE|DICT|INTERRES
   131   66   68 2    
   132   67  132 1    
   133   67  133 1    
   134   69   70 1    
   135   69  134 1    
   136   69  135 1    
   137   70   71 1    
   138   71  136 1    
   139   71  137 1    
@<TRIPOS>SUBSTRUCTURE
     1 UNK         1 GROUP             0       ****    0 ROOT    
