@<TRIPOS>MOLECULE
3R137
137   139    1
SMALL
USER_CHARGES


@<TRIPOS>ATOM
      1 CA         26.7084   -6.8874   -2.9888 C.3       0 UNK        -0.2020 
      2 C          26.3692   -5.7798   -2.0026 C.2       0 UNK         0.4855 
      3 O          25.4312   -5.9248   -1.2181 O.2       0 UNK        -0.5197 
      4 N          27.1307   -4.6791   -2.0301 N.am      1 UNK        -0.4892 
      5 CA         26.9069   -3.4860   -1.2098 C.3       1 UNK         0.0835 
      6 C6         28.1443   -2.5559   -1.2102 C.3       12 UNK        -0.0855 
      7 S7         29.5017   -3.1788   -0.1536 S.3       12 UNK        -0.2931 
      8 C8         30.4358   -4.3326   -1.2207 C.3       12 UNK         0.0378 
      9 C9         30.7498   -3.7592   -2.5955 C.ar      12 UNK        -0.0802 
     10 C10        31.4898   -2.5794   -2.7222 C.ar      12 UNK        -0.0944 
     11 C11        31.7290   -2.0115   -3.9774 C.ar      12 UNK        -0.0787 
     12 C12        31.2052   -2.6450   -5.1125 C.ar      12 UNK        -0.0862 
     13 C13        30.4728   -3.8314   -5.0035 C.ar      12 UNK        -0.0733 
     14 C14        30.2756   -4.3993   -3.7428 C.ar      12 UNK        -0.0832 
     15 C15        29.8996   -4.4862   -6.2568 C.3       12 UNK         0.0240 
     16 S16        28.1459   -4.9920   -6.1224 S.3       12 UNK        -0.2522 
     17 C17        27.3030   -3.5600   -5.3637 C.3       12 UNK        -0.0967 
     18 CA         26.9224   -2.4376   -6.3603 C.3       5 UNK         0.0660 
     19 N          25.6970   -1.7386   -5.9552 N.am      5 UNK        -0.4015 
     20 C          25.0459   -0.8615   -6.7356 C.2       4 UNK         0.4946 
     21 O          25.3906   -0.5776   -7.8826 O.2       4 UNK        -0.5353 
     22 CA         23.8299   -0.1446   -6.1306 C.3       4 UNK         0.0277 
     23 CB         22.5820   -1.0384   -6.2059 C.3       4 UNK        -0.1981 
     24 N          24.0300    0.2970   -4.7500 N.am      4 UNK        -0.4209 
     25 C          24.9900    1.1186   -4.3086 C.2       3 UNK         0.4942 
     26 O          25.8627    1.5919   -5.0348 O.2       3 UNK        -0.5208 
     27 CA         25.0062    1.4599   -2.8051 C.3       3 UNK         0.0250 
     28 CB         24.1259    2.6899   -2.5117 C.3       3 UNK        -0.1990 
     29 N          24.6820    0.3348   -1.9120 N.am      3 UNK        -0.4232 
     30 C          23.5355   -0.3547   -1.8018 C.2       2 UNK         0.4993 
     31 O          22.5110   -0.0762   -2.4278 O.2       2 UNK        -0.5286 
     32 CA         23.5474   -1.5888   -0.8770 C.3       2 UNK         0.0209 
     33 CB         22.5007   -2.6412   -1.3034 C.3       2 UNK        -0.1931 
     34 N          24.8636   -2.2305   -0.7220 N.am      2 UNK        -0.4546 
     35 C          25.6484   -2.7322   -1.6896 C.2       1 UNK         0.5154 
     36 O          25.4364   -2.5951   -2.8994 O.2       1 UNK        -0.5181 
     37 C          28.0857   -1.4466   -6.5575 C.2       5 UNK         0.5014 
     38 O          28.7893   -1.5232   -7.5649 O.2       5 UNK        -0.5248 
     39 N          28.2389   -0.5117   -5.6074 N.am      6 UNK        -0.4434 
     40 CA         29.2644    0.5309   -5.6277 C.3       6 UNK         0.0363 
     41 CB         29.2804    1.2758   -4.2839 C.3       6 UNK        -0.1936 
     42 C          29.0998    1.5044   -6.8022 C.2       6 UNK         0.5081 
     43 O          30.0973    1.8762   -7.4206 O.2       6 UNK        -0.5248 
     44 N          27.8470    1.8650   -7.1091 N.am      7 UNK        -0.4718 
     45 CA         27.4705    2.6663   -8.2722 C.3       7 UNK         0.0273 
     46 CB         25.9962    3.0841   -8.1535 C.3       7 UNK        -0.1935 
     47 C          27.7299    1.9355   -9.5999 C.2       7 UNK         0.5018 
     48 O          28.2838    2.5428  -10.5162 O.2       7 UNK        -0.5186 
     49 N          27.3489    0.6508   -9.6762 N.am      8 UNK        -0.4240 
     50 CA         27.5443   -0.2062  -10.8499 C.3       8 UNK         0.0235 
     51 CB         26.7755   -1.5251  -10.6694 C.3       8 UNK        -0.2000 
     52 C          29.0249   -0.4804  -11.1583 C.2       8 UNK         0.4941 
     53 O          29.4254   -0.3917  -12.3197 O.2       8 UNK        -0.5273 
     54 N          29.8118   -0.7938  -10.1199 N.am      9 UNK        -0.4262 
     55 CA         31.2564   -1.0212  -10.2194 C.3       9 UNK         0.0264 
     56 CB         31.7291   -1.7772   -8.9709 C.3       9 UNK        -0.1955 
     57 C          32.0721    0.2730  -10.3858 C.2       9 UNK         0.5031 
     58 O          33.2153    0.1969  -10.8383 O.2       9 UNK        -0.5390 
     59 N          31.4839    1.4167  -10.0041 N.am      10 UNK        -0.4204 
     60 CA         32.0769    2.7551   -9.9425 C.3       10 UNK         0.0237 
     61 CB         32.4610    3.2662  -11.3479 C.3       10 UNK        -0.1985 
     62 C          33.2329    2.8116   -8.9269 C.2       10 UNK         0.4970 
     63 O          34.3499    3.1972   -9.2784 O.2       10 UNK        -0.4914 
     64 N          32.9365    2.4135   -7.6818 N.am      11 UNK        -0.4285 
     65 CA         33.8841    2.4243   -6.5524 C.3       11 UNK         0.1007 
     66 C          34.3315    3.8444   -6.0938 C.2       11 UNK         0.5703 
     67 N          33.6145    4.9108   -6.4302 N.am      11 UNK        -0.7361 
     68 O          35.3516    3.9786   -5.4220 O.2       11 UNK        -0.4986 
     69 C69        33.3575    1.6174   -5.3366 C.3       12 UNK        -0.0947 
     70 S70        33.0473   -0.1416   -5.6940 S.3       12 UNK        -0.2240 
     71 C71        32.5079   -0.6939   -4.0361 C.3       12 UNK         0.0194 
     72 H72        26.8325   -7.8339   -2.4633 H         1 UNK         0.0906 
     73 H73        25.9026   -7.0025   -3.7133 H         1 UNK         0.0906 
     74 H74        27.6280   -6.6831   -3.5356 H         1 UNK         0.0906 
     75 H75        27.8695   -4.6020   -2.7104 H         1 UNK         0.3140 
     76 H76        26.7254   -3.8195   -0.1852 H         1 UNK         0.1085 
     77 H77        28.4962   -2.3596   -2.2239 H         1 UNK         0.0836 
     78 H78        27.8823   -1.5766   -0.8044 H         1 UNK         0.0836 
     79 H79        31.3715   -4.5909   -0.7231 H         1 UNK         0.0731 
     80 H80        29.8720   -5.2628   -1.3048 H         1 UNK         0.0731 
     81 H81        31.8593   -2.0879   -1.8322 H         1 UNK         0.1312 
     82 H82        31.3494   -2.2145   -6.0903 H         1 UNK         0.1406 
     83 H83        29.7279   -5.3273   -3.6596 H         1 UNK         0.1631 
     84 H84        30.4969   -5.3679   -6.4920 H         1 UNK         0.0717 
     85 H85        29.9952   -3.8224   -7.1155 H         1 UNK         0.0717 
     86 H86        27.8670   -3.1753   -4.5138 H         1 UNK         0.0934 
     87 H87        26.3924   -3.9769   -4.9306 H         1 UNK         0.0934 
     88 H88        26.7132   -2.8941   -7.3303 H         1 UNK         0.0739 
     89 H89        25.3610   -1.9116   -5.0140 H         1 UNK         0.3093 
     90 H90        23.6468    0.7489   -6.7308 H         1 UNK         0.0818 
     91 H91        21.6907   -0.5021   -5.8796 H         1 UNK         0.0819 
     92 H92        22.4014   -1.3728   -7.2286 H         1 UNK         0.0819 
     93 H93        22.6833   -1.9281   -5.5829 H         1 UNK         0.0819 
     94 H94        23.3438   -0.0056   -4.0616 H         1 UNK         0.3041 
     95 H95        26.0352    1.7338   -2.5663 H         1 UNK         0.0784 
     96 H96        24.4444    3.5455   -3.1088 H         1 UNK         0.0793 
     97 H97        23.0762    2.5081   -2.7437 H         1 UNK         0.0793 
     98 H98        24.1918    2.9836   -1.4641 H         1 UNK         0.0793 
     99 H99        25.4584   -0.0040   -1.3619 H         1 UNK         0.3024 
    100 H100       23.2622   -1.2200    0.1098 H         1 UNK         0.1171 
    101 H101       22.5026   -3.4986   -0.6302 H         1 UNK         0.0786 
    102 H102       22.6880   -3.0088   -2.3131 H         1 UNK         0.0786 
    103 H103       21.4924   -2.2251   -1.2895 H         1 UNK         0.0786 
    104 H104       25.1573   -2.3645    0.2366 H         1 UNK         0.2977 
    105 H105       27.5767   -0.4808   -4.8472 H         1 UNK         0.3127 
    106 H106       30.2239    0.0338   -5.7568 H         1 UNK         0.0770 
    107 H107       28.3440    1.8018   -4.0984 H         1 UNK         0.0814 
    108 H108       30.0771    2.0199   -4.2625 H         1 UNK         0.0814 
    109 H109       29.4521    0.5919   -3.4527 H         1 UNK         0.0814 
    110 H110       27.0945    1.5678   -6.4921 H         1 UNK         0.2983 
    111 H111       28.0833    3.5705   -8.2665 H         1 UNK         0.0947 
    112 H112       25.6969    3.7062   -8.9980 H         1 UNK         0.0806 
    113 H113       25.8207    3.6614   -7.2455 H         1 UNK         0.0806 
    114 H114       25.3313    2.2200   -8.1311 H         1 UNK         0.0806 
    115 H115       26.8540    0.2375   -8.8896 H         1 UNK         0.3000 
    116 H116       27.1213    0.3151  -11.7113 H         1 UNK         0.0850 
    117 H117       26.9044   -2.1758  -11.5353 H         1 UNK         0.0810 
    118 H118       25.7062   -1.3468  -10.5547 H         1 UNK         0.0810 
    119 H119       27.1175   -2.0752   -9.7920 H         1 UNK         0.0810 
    120 H120       29.3917   -0.9117   -9.1979 H         1 UNK         0.3040 
    121 H121       31.4494   -1.6479  -11.0926 H         1 UNK         0.0766 
    122 H122       32.7997   -1.9825   -9.0127 H         1 UNK         0.0812 
    123 H123       31.5425   -1.1908   -8.0720 H         1 UNK         0.0812 
    124 H124       31.2167   -2.7330   -8.8676 H         1 UNK         0.0812 
    125 H125       30.5616    1.3449   -9.5928 H         1 UNK         0.3205 
    126 H126       31.2965    3.4142   -9.5587 H         1 UNK         0.0754 
    127 H127       32.7980    4.3026  -11.3051 H         1 UNK         0.0769 
    128 H128       31.6088    3.2297  -12.0268 H         1 UNK         0.0769 
    129 H129       33.2679    2.6818  -11.7908 H         1 UNK         0.0769 
    130 H130       31.9835    2.1227   -7.4777 H         1 UNK         0.2981 
    131 H131       34.7913    1.9275   -6.9015 H         1 UNK         0.0541 
    132 H132       32.7735    4.8107   -6.9748 H         1 UNK         0.3459 
    133 H133       33.9175    5.8239   -6.1301 H         1 UNK         0.3459 
    134 H134       32.4336    2.0637   -4.9652 H         1 UNK         0.0612 
    135 H135       34.0724    1.6577   -4.5123 H         1 UNK         0.0612 
    136 H136       33.3944   -0.7731   -3.4051 H         1 UNK         0.0624 
    137 H137       31.8838    0.0820   -3.5925 H         1 UNK         0.0624 
@<TRIPOS>BOND
     1    1    2 1    
     2    1   72 1    
     3    1   73 1    
     4    1   74 1    
     5    2    3 2    
     6    2    4 am   BACKBONE|DICT|INTERRES
     7    4    5 1    
     8    4   75 1    
     9    5    6 1    
    10    5   35 1    
    11    5   76 1    
    12    6    7 1    
    13    6   77 1    
    14    6   78 1    
    15    7    8 1    
    16    8    9 1    
    17    8   79 1    
    18    8   80 1    
    19    9   10 ar   
    20    9   14 ar   
    21   10   11 ar   
    22   10   81 1    
    23   11   12 ar   
    24   11   71 1    
    25   12   13 ar   
    26   12   82 1    
    27   13   14 ar   
    28   13   15 1    
    29   14   83 1    
    30   15   16 1    
    31   15   84 1    
    32   15   85 1    
    33   16   17 1    
    34   17   18 1    
    35   17   86 1    
    36   17   87 1    
    37   18   19 1    
    38   18   37 1    
    39   18   88 1    
    40   19   20 am   BACKBONE|DICT|INTERRES
    41   19   89 1    
    42   20   21 2    
    43   20   22 1    
    44   22   23 1    
    45   22   24 1    
    46   22   90 1    
    47   23   91 1    
    48   23   92 1    
    49   23   93 1    
    50   24   25 am   BACKBONE|DICT|INTERRES
    51   24   94 1    
    52   25   26 2    
    53   25   27 1    
    54   27   28 1    
    55   27   29 1    
    56   27   95 1    
    57   28   96 1    
    58   28   97 1    
    59   28   98 1    
    60   29   30 am   BACKBONE|DICT|INTERRES
    61   29   99 1    
    62   30   31 2    
    63   30   32 1    
    64   32   33 1    
    65   32   34 1    
    66   32  100 1    
    67   33  101 1    
    68   33  102 1    
    69   33  103 1    
    70   34   35 am   BACKBONE|DICT|INTERRES
    71   34  104 1    
    72   35   36 2    
    73   37   38 2    
    74   37   39 am   BACKBONE|DICT|INTERRES
    75   39   40 1    
    76   39  105 1    
    77   40   41 1    
    78   40   42 1    
    79   40  106 1    
    80   41  107 1    
    81   41  108 1    
    82   41  109 1    
    83   42   43 2    
    84   42   44 am   BACKBONE|DICT|INTERRES
    85   44   45 1    
    86   44  110 1    
    87   45   46 1    
    88   45   47 1    
    89   45  111 1    
    90   46  112 1    
    91   46  113 1    
    92   46  114 1    
    93   47   48 2    
    94   47   49 am   BACKBONE|DICT|INTERRES
    95   49   50 1    
    96   49  115 1    
    97   50   51 1    
    98   50   52 1    
    99   50  116 1    
   100   51  117 1    
   101   51  118 1    
   102   51  119 1    
   103   52   53 2    
   104   52   54 am   BACKBONE|DICT|INTERRES
   105   54   55 1    
   106   54  120 1    
   107   55   56 1    
   108   55   57 1    
   109   55  121 1    
   110   56  122 1    
   111   56  123 1    
   112   56  124 1    
   113   57   58 2    
   114   57   59 am   BACKBONE|DICT|INTERRES
   115   59   60 1    
   116   59  125 1    
   117   60   61 1    
   118   60   62 1    
   119   60  126 1    
   120   61  127 1    
   121   61  128 1    
   122   61  129 1    
   123   62   63 2    
   124   62   64 am   BACKBONE|DICT|INTERRES
   125   64   65 1    
   126   64  130 1    
   127   65   66 1    
   128   65   69 1    
   129   65  131 1    
   130   66   67 am   BACKBONE|DICT|INTERRES
   131   66   68 2    
   132   67  132 1    
   133   67  133 1    
   134   69   70 1    
   135   69  134 1    
   136   69  135 1    
   137   70   71 1    
   138   71  136 1    
   139   71  137 1    
@<TRIPOS>SUBSTRUCTURE
     1 UNK         1 GROUP             0       ****    0 ROOT    
