@<TRIPOS>MOLECULE
3R137
137   139    1
SMALL
USER_CHARGES


@<TRIPOS>ATOM
      1 CA         27.3220   -6.4330   -5.7427 C.3       0 UNK        -0.2020 
      2 C          27.5664   -5.8323   -4.3674 C.2       0 UNK         0.4855 
      3 O          26.6977   -5.9160   -3.4983 O.2       0 UNK        -0.5197 
      4 N          28.7363   -5.2125   -4.1654 N.am      1 UNK        -0.4892 
      5 CA         29.1237   -4.5074   -2.9382 C.3       1 UNK         0.0835 
      6 C6         30.5960   -4.0368   -3.0232 C.3       12 UNK        -0.0855 
      7 S7         31.4804   -3.8508   -1.4379 S.3       12 UNK        -0.2931 
      8 C8         30.7893   -2.3415   -0.6623 C.3       12 UNK         0.0378 
      9 C9         30.7146   -1.0701   -1.5149 C.ar      12 UNK        -0.0802 
     10 C10        31.5307   -0.8391   -2.6306 C.ar      12 UNK        -0.0944 
     11 C11        31.3937    0.3311   -3.3875 C.ar      12 UNK        -0.0787 
     12 C12        30.4796    1.3086   -2.9824 C.ar      12 UNK        -0.0862 
     13 C13        29.6879    1.1143   -1.8455 C.ar      12 UNK        -0.0733 
     14 C14        29.8048   -0.0803   -1.1301 C.ar      12 UNK        -0.0832 
     15 C15        28.7407    2.1997   -1.3398 C.3       12 UNK         0.0240 
     16 S16        27.7057    2.9580   -2.6334 S.3       12 UNK        -0.2522 
     17 C17        26.6985    1.5488   -3.2083 C.3       12 UNK        -0.0967 
     18 CA         26.7655    1.3884   -4.7478 C.3       5 UNK         0.0660 
     19 N          26.6209   -0.0152   -5.1526 N.am      5 UNK        -0.4015 
     20 C          26.8601   -0.4945   -6.3826 C.2       4 UNK         0.4946 
     21 O          27.2865    0.2060   -7.3024 O.2       4 UNK        -0.5353 
     22 CA         26.4984   -1.9630   -6.6676 C.3       4 UNK         0.0277 
     23 CB         27.7396   -2.7782   -7.0479 C.3       4 UNK        -0.1981 
     24 N          25.8183   -2.6102   -5.5437 N.am      4 UNK        -0.4209 
     25 C          24.4943   -2.5757   -5.3344 C.2       3 UNK         0.4942 
     26 O          23.7017   -2.0092   -6.0870 O.2       3 UNK        -0.5208 
     27 CA         23.9636   -3.2613   -4.0620 C.3       3 UNK         0.0250 
     28 CB         23.5195   -4.7000   -4.3699 C.3       3 UNK        -0.1990 
     29 N          24.9384   -3.2698   -2.9665 N.am      3 UNK        -0.4232 
     30 C          25.2956   -2.1753   -2.2765 C.2       2 UNK         0.4993 
     31 O          24.8051   -1.0629   -2.4669 O.2       2 UNK        -0.5286 
     32 CA         26.4275   -2.3233   -1.2424 C.3       2 UNK         0.0209 
     33 CB         25.8538   -2.6238    0.1507 C.3       2 UNK        -0.1931 
     34 N          27.4260   -3.3403   -1.5903 N.am      2 UNK        -0.4546 
     35 C          28.1647   -3.3229   -2.7084 C.2       1 UNK         0.5154 
     36 O          28.0700   -2.4479   -3.5715 O.2       1 UNK        -0.5181 
     37 C          25.7833    2.3405   -5.4794 C.2       5 UNK         0.5014 
     38 O          25.9826    3.5545   -5.4537 O.2       5 UNK        -0.5248 
     39 N          24.7665    1.7883   -6.1610 N.am      6 UNK        -0.4434 
     40 CA         23.9300    2.5015   -7.1293 C.3       6 UNK         0.0363 
     41 CB         22.7656    1.5940   -7.5570 C.3       6 UNK        -0.1936 
     42 C          24.7209    2.9857   -8.3627 C.2       6 UNK         0.5081 
     43 O          24.3833    4.0328   -8.9156 O.2       6 UNK        -0.5248 
     44 N          25.7586    2.2338   -8.7607 N.am      7 UNK        -0.4718 
     45 CA         26.7235    2.6269   -9.7897 C.3       7 UNK         0.0273 
     46 CB         27.1606    1.3885  -10.5907 C.3       7 UNK        -0.1935 
     47 C          27.9406    3.3197   -9.1575 C.2       7 UNK         0.5018 
     48 O          28.3993    4.3300   -9.6912 O.2       7 UNK        -0.5186 
     49 N          28.4273    2.7669   -8.0337 N.am      8 UNK        -0.4240 
     50 CA         29.5560    3.2439   -7.2196 C.3       8 UNK         0.0235 
     51 CB         29.2432    4.6125   -6.5776 C.3       8 UNK        -0.2000 
     52 C          30.9143    3.2332   -7.9522 C.2       8 UNK         0.4941 
     53 O          31.8078    4.0053   -7.5985 O.2       8 UNK        -0.5273 
     54 N          31.0616    2.3415   -8.9366 N.am      9 UNK        -0.4262 
     55 CA         32.2938    2.0654   -9.6638 C.3       9 UNK         0.0264 
     56 CB         32.4267    3.0147  -10.8673 C.3       9 UNK        -0.1955 
     57 C          32.2296    0.6033  -10.1094 C.2       9 UNK         0.5031 
     58 O          31.1521    0.1528  -10.5088 O.2       9 UNK        -0.5390 
     59 N          33.3684   -0.1026  -10.0203 N.am      10 UNK        -0.4204 
     60 CA         33.5384   -1.5390  -10.2964 C.3       10 UNK         0.0237 
     61 CB         33.4542   -1.8111  -11.8139 C.3       10 UNK        -0.1985 
     62 C          32.5667   -2.4112   -9.4726 C.2       10 UNK         0.4970 
     63 O          31.8880   -3.2785  -10.0259 O.2       10 UNK        -0.4914 
     64 N          32.4872   -2.1155   -8.1682 N.am      11 UNK        -0.4285 
     65 CA         31.4531   -2.6192   -7.2512 C.3       11 UNK         0.1007 
     66 C          31.5024   -4.1425   -6.9277 C.2       11 UNK         0.5703 
     67 N          32.5652   -4.8616   -7.2655 N.am      11 UNK        -0.7361 
     68 O          30.5581   -4.6789   -6.3514 O.2       11 UNK        -0.4986 
     69 C69        31.3811   -1.7932   -5.9400 C.3       12 UNK        -0.0947 
     70 S70        31.3804    0.0163   -6.1520 S.3       12 UNK        -0.2240 
     71 C71        32.2412    0.5515   -4.6353 C.3       12 UNK         0.0194 
     72 H72        26.4509   -5.9698   -6.2051 H         1 UNK         0.0906 
     73 H73        28.1752   -6.2896   -6.4060 H         1 UNK         0.0906 
     74 H74        27.1347   -7.5029   -5.6566 H         1 UNK         0.0906 
     75 H75        29.3907   -5.1259   -4.9413 H         1 UNK         0.3140 
     76 H76        29.0285   -5.2173   -2.1139 H         1 UNK         0.1085 
     77 H77        31.1763   -4.7721   -3.5833 H         1 UNK         0.0836 
     78 H78        30.6804   -3.1239   -3.6000 H         1 UNK         0.0836 
     79 H79        31.3928   -2.1167    0.2181 H         1 UNK         0.0731 
     80 H80        29.7968   -2.5866   -0.2833 H         1 UNK         0.0731 
     81 H81        32.2635   -1.5763   -2.9250 H         1 UNK         0.1312 
     82 H82        30.3905    2.2254   -3.5488 H         1 UNK         0.1406 
     83 H83        29.1950   -0.2344   -0.2500 H         1 UNK         0.1631 
     84 H84        29.3363    2.9839   -0.8710 H         1 UNK         0.0717 
     85 H85        28.0826    1.8095   -0.5618 H         1 UNK         0.0717 
     86 H86        27.0730    0.6460   -2.7241 H         1 UNK         0.0934 
     87 H87        25.6710    1.6643   -2.8570 H         1 UNK         0.0934 
     88 H88        27.7675    1.6777   -5.0714 H         1 UNK         0.0739 
     89 H89        26.2887   -0.6549   -4.4444 H         1 UNK         0.3093 
     90 H90        25.8323   -1.9592   -7.5332 H         1 UNK         0.0818 
     91 H91        27.4765   -3.7974   -7.3294 H         1 UNK         0.0819 
     92 H92        28.2440   -2.3292   -7.9038 H         1 UNK         0.0819 
     93 H93        28.4520   -2.8307   -6.2261 H         1 UNK         0.0819 
     94 H94        26.4188   -3.0183   -4.8370 H         1 UNK         0.3041 
     95 H95        23.0863   -2.7013   -3.7303 H         1 UNK         0.0784 
     96 H96        22.7516   -4.7125   -5.1447 H         1 UNK         0.0793 
     97 H97        24.3475   -5.3142   -4.7243 H         1 UNK         0.0793 
     98 H98        23.0969   -5.1828   -3.4885 H         1 UNK         0.0793 
     99 H99        25.4126   -4.1459   -2.7795 H         1 UNK         0.3024 
    100 H100       26.9443   -1.3624   -1.1987 H         1 UNK         0.1171 
    101 H101       26.6357   -2.6272    0.9104 H         1 UNK         0.0786 
    102 H102       25.1243   -1.8671    0.4436 H         1 UNK         0.0786 
    103 H103       25.3501   -3.5909    0.1806 H         1 UNK         0.0786 
    104 H104       27.5270   -4.1139   -0.9484 H         1 UNK         0.2977 
    105 H105       24.6394    0.7879   -6.1055 H         1 UNK         0.3127 
    106 H106       23.5165    3.3825   -6.6336 H         1 UNK         0.0770 
    107 H107       23.1191    0.6814   -8.0390 H         1 UNK         0.0814 
    108 H108       22.1131    2.1058   -8.2659 H         1 UNK         0.0814 
    109 H109       22.1518    1.3059   -6.7033 H         1 UNK         0.0814 
    110 H110       25.9946    1.4034   -8.2279 H         1 UNK         0.2983 
    111 H111       26.2597    3.3307  -10.4847 H         1 UNK         0.0947 
    112 H112       27.6386    0.6382   -9.9597 H         1 UNK         0.0806 
    113 H113       27.8758    1.6607  -11.3683 H         1 UNK         0.0806 
    114 H114       26.3103    0.9171  -11.0836 H         1 UNK         0.0806 
    115 H115       28.0058    1.8932   -7.7245 H         1 UNK         0.3000 
    116 H116       29.6582    2.5238   -6.4070 H         1 UNK         0.0850 
    117 H117       28.3009    4.5916   -6.0325 H         1 UNK         0.0810 
    118 H118       29.1823    5.4054   -7.3234 H         1 UNK         0.0810 
    119 H119       30.0168    4.8967   -5.8633 H         1 UNK         0.0810 
    120 H120       30.3013    1.7093   -9.1555 H         1 UNK         0.3040 
    121 H121       33.1470    2.1988   -8.9949 H         1 UNK         0.0766 
    122 H122       33.3372    2.8073  -11.4307 H         1 UNK         0.0812 
    123 H123       32.4719    4.0559  -10.5473 H         1 UNK         0.0812 
    124 H124       31.5849    2.9127  -11.5536 H         1 UNK         0.0812 
    125 H125       34.1946    0.3738   -9.6837 H         1 UNK         0.3205 
    126 H126       34.5441   -1.8063   -9.9683 H         1 UNK         0.0754 
    127 H127       33.6721   -2.8563  -12.0371 H         1 UNK         0.0769 
    128 H128       34.1738   -1.2062  -12.3655 H         1 UNK         0.0769 
    129 H129       32.4614   -1.5937  -12.2098 H         1 UNK         0.0769 
    130 H130       33.0796   -1.3885   -7.7970 H         1 UNK         0.2981 
    131 H131       30.5096   -2.4661   -7.7736 H         1 UNK         0.0541 
    132 H132       32.5820   -5.8458   -7.0514 H         1 UNK         0.3459 
    133 H133       33.3401   -4.4339   -7.7455 H         1 UNK         0.3459 
    134 H134       30.4573   -2.0261   -5.4130 H         1 UNK         0.0612 
    135 H135       32.2061   -2.0708   -5.2823 H         1 UNK         0.0612 
    136 H136       33.1947    0.0283   -4.5497 H         1 UNK         0.0624 
    137 H137       32.4848    1.6107   -4.7310 H         1 UNK         0.0624 
@<TRIPOS>BOND
     1    1    2 1    
     2    1   72 1    
     3    1   73 1    
     4    1   74 1    
     5    2    3 2    
     6    2    4 am   BACKBONE|DICT|INTERRES
     7    4    5 1    
     8    4   75 1    
     9    5    6 1    
    10    5   35 1    
    11    5   76 1    
    12    6    7 1    
    13    6   77 1    
    14    6   78 1    
    15    7    8 1    
    16    8    9 1    
    17    8   79 1    
    18    8   80 1    
    19    9   10 ar   
    20    9   14 ar   
    21   10   11 ar   
    22   10   81 1    
    23   11   12 ar   
    24   11   71 1    
    25   12   13 ar   
    26   12   82 1    
    27   13   14 ar   
    28   13   15 1    
    29   14   83 1    
    30   15   16 1    
    31   15   84 1    
    32   15   85 1    
    33   16   17 1    
    34   17   18 1    
    35   17   86 1    
    36   17   87 1    
    37   18   19 1    
    38   18   37 1    
    39   18   88 1    
    40   19   20 am   BACKBONE|DICT|INTERRES
    41   19   89 1    
    42   20   21 2    
    43   20   22 1    
    44   22   23 1    
    45   22   24 1    
    46   22   90 1    
    47   23   91 1    
    48   23   92 1    
    49   23   93 1    
    50   24   25 am   BACKBONE|DICT|INTERRES
    51   24   94 1    
    52   25   26 2    
    53   25   27 1    
    54   27   28 1    
    55   27   29 1    
    56   27   95 1    
    57   28   96 1    
    58   28   97 1    
    59   28   98 1    
    60   29   30 am   BACKBONE|DICT|INTERRES
    61   29   99 1    
    62   30   31 2    
    63   30   32 1    
    64   32   33 1    
    65   32   34 1    
    66   32  100 1    
    67   33  101 1    
    68   33  102 1    
    69   33  103 1    
    70   34   35 am   BACKBONE|DICT|INTERRES
    71   34  104 1    
    72   35   36 2    
    73   37   38 2    
    74   37   39 am   BACKBONE|DICT|INTERRES
    75   39   40 1    
    76   39  105 1    
    77   40   41 1    
    78   40   42 1    
    79   40  106 1    
    80   41  107 1    
    81   41  108 1    
    82   41  109 1    
    83   42   43 2    
    84   42   44 am   BACKBONE|DICT|INTERRES
    85   44   45 1    
    86   44  110 1    
    87   45   46 1    
    88   45   47 1    
    89   45  111 1    
    90   46  112 1    
    91   46  113 1    
    92   46  114 1    
    93   47   48 2    
    94   47   49 am   BACKBONE|DICT|INTERRES
    95   49   50 1    
    96   49  115 1    
    97   50   51 1    
    98   50   52 1    
    99   50  116 1    
   100   51  117 1    
   101   51  118 1    
   102   51  119 1    
   103   52   53 2    
   104   52   54 am   BACKBONE|DICT|INTERRES
   105   54   55 1    
   106   54  120 1    
   107   55   56 1    
   108   55   57 1    
   109   55  121 1    
   110   56  122 1    
   111   56  123 1    
   112   56  124 1    
   113   57   58 2    
   114   57   59 am   BACKBONE|DICT|INTERRES
   115   59   60 1    
   116   59  125 1    
   117   60   61 1    
   118   60   62 1    
   119   60  126 1    
   120   61  127 1    
   121   61  128 1    
   122   61  129 1    
   123   62   63 2    
   124   62   64 am   BACKBONE|DICT|INTERRES
   125   64   65 1    
   126   64  130 1    
   127   65   66 1    
   128   65   69 1    
   129   65  131 1    
   130   66   67 am   BACKBONE|DICT|INTERRES
   131   66   68 2    
   132   67  132 1    
   133   67  133 1    
   134   69   70 1    
   135   69  134 1    
   136   69  135 1    
   137   70   71 1    
   138   71  136 1    
   139   71  137 1    
@<TRIPOS>SUBSTRUCTURE
     1 UNK         1 GROUP             0       ****    0 ROOT    
