@<TRIPOS>MOLECULE
3R137
137   139    1
SMALL
USER_CHARGES


@<TRIPOS>ATOM
      1 CA         27.3388   -6.6807    0.1239 C.3       0 UNK        -0.2020 
      2 C          27.3834   -5.2335   -0.3416 C.2       0 UNK         0.4855 
      3 O          27.2726   -4.9785   -1.5394 O.2       0 UNK        -0.5197 
      4 N          27.5314   -4.2902    0.5993 N.am      1 UNK        -0.4892 
      5 CA         27.6432   -2.8271    0.4360 C.3       1 UNK         0.0835 
      6 C6         28.8129   -2.3475   -0.4677 C.3       12 UNK        -0.0855 
      7 S7         30.4042   -3.1796   -0.1282 S.3       12 UNK        -0.2931 
      8 C8         31.4761   -2.4738   -1.4316 C.3       12 UNK         0.0378 
      9 C9         31.1142   -2.8094   -2.8832 C.ar      12 UNK        -0.0802 
     10 C10        31.8186   -2.1598   -3.9006 C.ar      12 UNK        -0.0944 
     11 C11        31.5301   -2.3940   -5.2527 C.ar      12 UNK        -0.0787 
     12 C12        30.5017   -3.2868   -5.5764 C.ar      12 UNK        -0.0862 
     13 C13        29.7879   -3.9503   -4.5746 C.ar      12 UNK        -0.0733 
     14 C14        30.1178   -3.7274   -3.2366 C.ar      12 UNK        -0.0832 
     15 C15        28.6634   -4.9177   -4.9180 C.3       12 UNK         0.0240 
     16 S16        27.0533   -4.0704   -5.0636 S.3       12 UNK        -0.2522 
     17 C17        26.9089   -3.8266   -6.8668 C.3       12 UNK        -0.0967 
     18 CA         26.6409   -2.3725   -7.3218 C.3       5 UNK         0.0660 
     19 N          25.3781   -1.8126   -6.8305 N.am      5 UNK        -0.4015 
     20 C          24.7638   -0.7747   -7.4196 C.2       4 UNK         0.4946 
     21 O          25.2023   -0.1946   -8.4138 O.2       4 UNK        -0.5353 
     22 CA         23.4571   -0.2769   -6.7840 C.3       4 UNK         0.0277 
     23 CB         22.3388   -1.3248   -6.9142 C.3       4 UNK        -0.1981 
     24 N          23.6146    0.1114   -5.3826 N.am      4 UNK        -0.4209 
     25 C          24.4357    1.0723   -4.9328 C.2       3 UNK         0.4942 
     26 O          25.1668    1.7486   -5.6537 O.2       3 UNK        -0.5208 
     27 CA         24.4596    1.3115   -3.4138 C.3       3 UNK         0.0250 
     28 CB         23.4527    2.4065   -3.0271 C.3       3 UNK        -0.1990 
     29 N          24.1992    0.1055   -2.6220 N.am      3 UNK        -0.4232 
     30 C          24.9740   -0.9872   -2.6283 C.2       2 UNK         0.4993 
     31 O          25.9752   -1.1166   -3.3384 O.2       2 UNK        -0.5286 
     32 CA         24.5259   -2.1432   -1.7224 C.3       2 UNK         0.0209 
     33 CB         23.8309   -3.2373   -2.5490 C.3       2 UNK        -0.1931 
     34 N          25.6758   -2.7210   -1.0348 N.am      2 UNK        -0.4546 
     35 C          26.3303   -2.1533   -0.0157 C.2       1 UNK         0.5154 
     36 O          25.9414   -1.1352    0.5595 O.2       1 UNK        -0.5181 
     37 C          27.8310   -1.4313   -7.0706 C.2       5 UNK         0.5014 
     38 O          28.7061   -1.3468   -7.9336 O.2       5 UNK        -0.5248 
     39 N          27.8221   -0.7057   -5.9403 N.am      6 UNK        -0.4434 
     40 CA         28.8221    0.3143   -5.6193 C.3       6 UNK         0.0363 
     41 CB         28.5925    0.8559   -4.2019 C.3       6 UNK        -0.1936 
     42 C          28.8635    1.4539   -6.6509 C.2       6 UNK         0.5081 
     43 O          29.9539    1.8935   -7.0149 O.2       6 UNK        -0.5248 
     44 N          27.6917    1.8855   -7.1359 N.am      7 UNK        -0.4718 
     45 CA         27.5665    2.8321   -8.2421 C.3       7 UNK         0.0273 
     46 CB         26.1385    3.3991   -8.2902 C.3       7 UNK        -0.1935 
     47 C          27.9531    2.1993   -9.5876 C.2       7 UNK         0.5018 
     48 O          28.7906    2.7624  -10.2925 O.2       7 UNK        -0.5186 
     49 N          27.3507    1.0463   -9.9197 N.am      8 UNK        -0.4240 
     50 CA         27.5055    0.3697  -11.2138 C.3       8 UNK         0.0235 
     51 CB         26.5498   -0.8301  -11.3006 C.3       8 UNK        -0.2000 
     52 C          28.9440   -0.0663  -11.5350 C.2       8 UNK         0.4941 
     53 O          29.3792    0.1055  -12.6743 O.2       8 UNK        -0.5273 
     54 N          29.6607   -0.5973  -10.5352 N.am      9 UNK        -0.4262 
     55 CA         31.0676   -0.9936  -10.6521 C.3       9 UNK         0.0264 
     56 CB         31.2963   -2.2915   -9.8594 C.3       9 UNK        -0.1955 
     57 C          32.0479    0.1291  -10.2527 C.2       9 UNK         0.5031 
     58 O          33.2549   -0.1162  -10.2381 O.2       9 UNK        -0.5390 
     59 N          31.5296    1.3370   -9.9770 N.am      10 UNK        -0.4204 
     60 CA         32.2560    2.5856   -9.7167 C.3       10 UNK         0.0237 
     61 CB         32.9683    3.0711  -10.9978 C.3       10 UNK        -0.1985 
     62 C          33.1886    2.5385   -8.4898 C.2       10 UNK         0.4970 
     63 O          34.2918    3.0875   -8.5357 O.2       10 UNK        -0.4914 
     64 N          32.7146    1.9188   -7.4041 N.am      11 UNK        -0.4285 
     65 CA         33.3318    2.0042   -6.0721 C.3       11 UNK         0.1007 
     66 C          32.8863    3.2777   -5.3015 C.2       11 UNK         0.5703 
     67 N          31.7025    3.8215   -5.5635 N.am      11 UNK        -0.7361 
     68 O          33.6288    3.7819   -4.4625 O.2       11 UNK        -0.4986 
     69 C69        33.0630    0.7411   -5.2179 C.3       12 UNK        -0.0947 
     70 S70        33.7796   -0.7685   -5.9484 S.3       12 UNK        -0.2240 
     71 C71        32.2787   -1.7049   -6.3991 C.3       12 UNK         0.0194 
     72 H72        28.1438   -7.2474   -0.3431 H         1 UNK         0.0906 
     73 H73        27.4463   -6.7671    1.2049 H         1 UNK         0.0906 
     74 H74        26.3911   -7.1368   -0.1612 H         1 UNK         0.0906 
     75 H75        27.5882   -4.5945    1.5617 H         1 UNK         0.3140 
     76 H76        27.8447   -2.4501    1.4403 H         1 UNK         0.1085 
     77 H77        28.5506   -2.4778   -1.5177 H         1 UNK         0.0836 
     78 H78        28.9634   -1.2738   -0.3387 H         1 UNK         0.0836 
     79 H79        31.4882   -1.3894   -1.3104 H         1 UNK         0.0731 
     80 H80        32.4960   -2.8138   -1.2471 H         1 UNK         0.0731 
     81 H81        32.5966   -1.4665   -3.6186 H         1 UNK         0.1312 
     82 H82        30.2521   -3.4623   -6.6139 H         1 UNK         0.1406 
     83 H83        29.5712   -4.2640   -2.4754 H         1 UNK         0.1631 
     84 H84        28.8981   -5.4709   -5.8281 H         1 UNK         0.0717 
     85 H85        28.5770   -5.6701   -4.1322 H         1 UNK         0.0717 
     86 H86        27.8033   -4.2022   -7.3667 H         1 UNK         0.0934 
     87 H87        26.0984   -4.4671   -7.2180 H         1 UNK         0.0934 
     88 H88        26.5423   -2.4301   -8.4073 H         1 UNK         0.0739 
     89 H89        24.9958   -2.2162   -5.9877 H         1 UNK         0.3093 
     90 H90        23.1485    0.6142   -7.3349 H         1 UNK         0.0818 
     91 H91        21.3814   -0.9244   -6.5801 H         1 UNK         0.0819 
     92 H92        22.2123   -1.6324   -7.9533 H         1 UNK         0.0819 
     93 H93        22.5470   -2.2228   -6.3314 H         1 UNK         0.0819 
     94 H94        23.0535   -0.3840   -4.7060 H         1 UNK         0.3041 
     95 H95        25.4595    1.6644   -3.1547 H         1 UNK         0.0784 
     96 H96        23.6407    3.3236   -3.5875 H         1 UNK         0.0793 
     97 H97        22.4252    2.1039   -3.2334 H         1 UNK         0.0793 
     98 H98        23.5244    2.6568   -1.9685 H         1 UNK         0.0793 
     99 H99        23.3921    0.1310   -2.0150 H         1 UNK         0.3024 
    100 H100       23.8256   -1.7687   -0.9722 H         1 UNK         0.1171 
    101 H101       23.4922   -4.0569   -1.9150 H         1 UNK         0.0786 
    102 H102       22.9549   -2.8434   -3.0657 H         1 UNK         0.0786 
    103 H103       24.4976   -3.6547   -3.3048 H         1 UNK         0.0786 
    104 H104       26.1133   -3.5346   -1.4632 H         1 UNK         0.2977 
    105 H105       27.0907   -0.8634   -5.2555 H         1 UNK         0.3127 
    106 H106       29.7950   -0.1754   -5.6346 H         1 UNK         0.0770 
    107 H107       27.6261    1.3513   -4.1136 H         1 UNK         0.0814 
    108 H108       29.3604    1.5828   -3.9341 H         1 UNK         0.0814 
    109 H109       28.6295    0.0551   -3.4625 H         1 UNK         0.0814 
    110 H110       26.8269    1.5268   -6.7409 H         1 UNK         0.2983 
    111 H111       28.2508    3.6636   -8.0585 H         1 UNK         0.0947 
    112 H112       26.0245    4.1047   -9.1141 H         1 UNK         0.0806 
    113 H113       25.8955    3.9315   -7.3705 H         1 UNK         0.0806 
    114 H114       25.3935    2.6138   -8.4243 H         1 UNK         0.0806 
    115 H115       26.6655    0.6486   -9.2797 H         1 UNK         0.3000 
    116 H116       27.2087    1.0870  -11.9820 H         1 UNK         0.0850 
    117 H117       26.6142   -1.3108  -12.2777 H         1 UNK         0.0810 
    118 H118       25.5131   -0.5245  -11.1584 H         1 UNK         0.0810 
    119 H119       26.7841   -1.5849  -10.5509 H         1 UNK         0.0810 
    120 H120       29.2276   -0.7314   -9.6217 H         1 UNK         0.3040 
    121 H121       31.2932   -1.2217  -11.6959 H         1 UNK         0.0766 
    122 H122       30.7343   -3.1175  -10.2950 H         1 UNK         0.0812 
    123 H123       30.9784   -2.1927   -8.8252 H         1 UNK         0.0812 
    124 H124       32.3474   -2.5827   -9.8583 H         1 UNK         0.0812 
    125 H125       30.5220    1.4372  -10.0201 H         1 UNK         0.3205 
    126 H126       31.4910    3.3244   -9.4728 H         1 UNK         0.0754 
    127 H127       33.3976    4.0638  -10.8568 H         1 UNK         0.0769 
    128 H128       32.2736    3.1374  -11.8354 H         1 UNK         0.0769 
    129 H129       33.7801    2.4027  -11.2868 H         1 UNK         0.0769 
    130 H130       31.7531    1.5911   -7.4217 H         1 UNK         0.2981 
    131 H131       34.4138    2.0821   -6.1952 H         1 UNK         0.0541 
    132 H132       31.0674    3.3643   -6.2073 H         1 UNK         0.3459 
    133 H133       31.4166    4.6513   -5.0694 H         1 UNK         0.3459 
    134 H134       33.5031    0.8538   -4.2253 H         1 UNK         0.0612 
    135 H135       31.9918    0.6085   -5.0600 H         1 UNK         0.0612 
    136 H136       32.5851   -2.4688   -7.1144 H         1 UNK         0.0624 
    137 H137       31.5970   -1.0364   -6.9259 H         1 UNK         0.0624 
@<TRIPOS>BOND
     1    1    2 1    
     2    1   72 1    
     3    1   73 1    
     4    1   74 1    
     5    2    3 2    
     6    2    4 am   BACKBONE|DICT|INTERRES
     7    4    5 1    
     8    4   75 1    
     9    5    6 1    
    10    5   35 1    
    11    5   76 1    
    12    6    7 1    
    13    6   77 1    
    14    6   78 1    
    15    7    8 1    
    16    8    9 1    
    17    8   79 1    
    18    8   80 1    
    19    9   10 ar   
    20    9   14 ar   
    21   10   11 ar   
    22   10   81 1    
    23   11   12 ar   
    24   11   71 1    
    25   12   13 ar   
    26   12   82 1    
    27   13   14 ar   
    28   13   15 1    
    29   14   83 1    
    30   15   16 1    
    31   15   84 1    
    32   15   85 1    
    33   16   17 1    
    34   17   18 1    
    35   17   86 1    
    36   17   87 1    
    37   18   19 1    
    38   18   37 1    
    39   18   88 1    
    40   19   20 am   BACKBONE|DICT|INTERRES
    41   19   89 1    
    42   20   21 2    
    43   20   22 1    
    44   22   23 1    
    45   22   24 1    
    46   22   90 1    
    47   23   91 1    
    48   23   92 1    
    49   23   93 1    
    50   24   25 am   BACKBONE|DICT|INTERRES
    51   24   94 1    
    52   25   26 2    
    53   25   27 1    
    54   27   28 1    
    55   27   29 1    
    56   27   95 1    
    57   28   96 1    
    58   28   97 1    
    59   28   98 1    
    60   29   30 am   BACKBONE|DICT|INTERRES
    61   29   99 1    
    62   30   31 2    
    63   30   32 1    
    64   32   33 1    
    65   32   34 1    
    66   32  100 1    
    67   33  101 1    
    68   33  102 1    
    69   33  103 1    
    70   34   35 am   BACKBONE|DICT|INTERRES
    71   34  104 1    
    72   35   36 2    
    73   37   38 2    
    74   37   39 am   BACKBONE|DICT|INTERRES
    75   39   40 1    
    76   39  105 1    
    77   40   41 1    
    78   40   42 1    
    79   40  106 1    
    80   41  107 1    
    81   41  108 1    
    82   41  109 1    
    83   42   43 2    
    84   42   44 am   BACKBONE|DICT|INTERRES
    85   44   45 1    
    86   44  110 1    
    87   45   46 1    
    88   45   47 1    
    89   45  111 1    
    90   46  112 1    
    91   46  113 1    
    92   46  114 1    
    93   47   48 2    
    94   47   49 am   BACKBONE|DICT|INTERRES
    95   49   50 1    
    96   49  115 1    
    97   50   51 1    
    98   50   52 1    
    99   50  116 1    
   100   51  117 1    
   101   51  118 1    
   102   51  119 1    
   103   52   53 2    
   104   52   54 am   BACKBONE|DICT|INTERRES
   105   54   55 1    
   106   54  120 1    
   107   55   56 1    
   108   55   57 1    
   109   55  121 1    
   110   56  122 1    
   111   56  123 1    
   112   56  124 1    
   113   57   58 2    
   114   57   59 am   BACKBONE|DICT|INTERRES
   115   59   60 1    
   116   59  125 1    
   117   60   61 1    
   118   60   62 1    
   119   60  126 1    
   120   61  127 1    
   121   61  128 1    
   122   61  129 1    
   123   62   63 2    
   124   62   64 am   BACKBONE|DICT|INTERRES
   125   64   65 1    
   126   64  130 1    
   127   65   66 1    
   128   65   69 1    
   129   65  131 1    
   130   66   67 am   BACKBONE|DICT|INTERRES
   131   66   68 2    
   132   67  132 1    
   133   67  133 1    
   134   69   70 1    
   135   69  134 1    
   136   69  135 1    
   137   70   71 1    
   138   71  136 1    
   139   71  137 1    
@<TRIPOS>SUBSTRUCTURE
     1 UNK         1 GROUP             0       ****    0 ROOT    
