@<TRIPOS>MOLECULE
3R137
137   139    1
SMALL
USER_CHARGES


@<TRIPOS>ATOM
      1 CA         29.0349   -5.8812   -4.9748 C.3       0 UNK        -0.2020 
      2 C          27.9495   -5.3704   -4.0372 C.2       0 UNK         0.4855 
      3 O          26.7624   -5.5538   -4.3089 O.2       0 UNK        -0.5197 
      4 N          28.3528   -4.7498   -2.9241 N.am      1 UNK        -0.4892 
      5 CA         27.4769   -4.2848   -1.8449 C.3       1 UNK         0.0835 
      6 C6         28.2196   -4.1066   -0.4824 C.3       12 UNK        -0.0855 
      7 S7         29.7175   -5.1417   -0.2679 S.3       12 UNK        -0.2931 
      8 C8         31.0604   -3.9051   -0.1665 C.3       12 UNK         0.0378 
      9 C9         30.9728   -2.8210   -1.2368 C.ar      12 UNK        -0.0802 
     10 C10        31.2395   -3.1148   -2.5760 C.ar      12 UNK        -0.0944 
     11 C11        31.1505   -2.1168   -3.5519 C.ar      12 UNK        -0.0787 
     12 C12        30.8045   -0.8127   -3.1791 C.ar      12 UNK        -0.0862 
     13 C13        30.5369   -0.5013   -1.8383 C.ar      12 UNK        -0.0733 
     14 C14        30.6305   -1.5136   -0.8785 C.ar      12 UNK        -0.0832 
     15 C15        30.1753    0.9090   -1.3614 C.3       12 UNK         0.0240 
     16 S16        29.4886    2.0436   -2.6175 S.3       12 UNK        -0.2522 
     17 C17        27.9435    1.2006   -3.0924 C.3       12 UNK        -0.0967 
     18 CA         27.7616    1.2001   -4.6341 C.3       5 UNK         0.0660 
     19 N          27.3474   -0.1045   -5.1478 N.am      5 UNK        -0.4015 
     20 C          27.3387   -0.4380   -6.4457 C.2       4 UNK         0.4946 
     21 O          27.7471    0.2929   -7.3501 O.2       4 UNK        -0.5353 
     22 CA         26.7525   -1.8120   -6.7963 C.3       4 UNK         0.0277 
     23 CB         27.8280   -2.8987   -6.6756 C.3       4 UNK        -0.1981 
     24 N          25.6054   -2.1580   -5.9528 N.am      4 UNK        -0.4209 
     25 C          24.4162   -1.5410   -6.0128 C.2       3 UNK         0.4942 
     26 O          24.1530   -0.6357   -6.8032 O.2       3 UNK        -0.5208 
     27 CA         23.3562   -1.9756   -4.9880 C.3       3 UNK         0.0250 
     28 CB         22.7133   -3.3103   -5.3981 C.3       3 UNK        -0.1990 
     29 N          23.8906   -2.0801   -3.6283 N.am      3 UNK        -0.4232 
     30 C          24.3936   -1.0524   -2.9296 C.2       2 UNK         0.4993 
     31 O          24.4495    0.1026   -3.3472 O.2       2 UNK        -0.5286 
     32 CA         24.9806   -1.3688   -1.5467 C.3       2 UNK         0.0209 
     33 CB         23.8818   -1.3318   -0.4727 C.3       2 UNK        -0.1931 
     34 N          25.7006   -2.6450   -1.4718 N.am      2 UNK        -0.4546 
     35 C          26.7500   -2.9815   -2.2359 C.2       1 UNK         0.5154 
     36 O          27.1631   -2.2870   -3.1706 O.2       1 UNK        -0.5181 
     37 C          26.8216    2.3268   -5.1131 C.2       5 UNK         0.5014 
     38 O          27.3035    3.3354   -5.6295 O.2       5 UNK        -0.5248 
     39 N          25.5018    2.1188   -4.9825 N.am      6 UNK        -0.4434 
     40 CA         24.4548    3.0365   -5.4451 C.3       6 UNK         0.0363 
     41 CB         23.0841    2.5519   -4.9468 C.3       6 UNK        -0.1936 
     42 C          24.4361    3.2187   -6.9718 C.2       6 UNK         0.5081 
     43 O          24.2098    4.3330   -7.4439 O.2       6 UNK        -0.5248 
     44 N          24.7035    2.1365   -7.7160 N.am      7 UNK        -0.4718 
     45 CA         24.8634    2.1474   -9.1736 C.3       7 UNK         0.0273 
     46 CB         24.7781    0.7045   -9.6979 C.3       7 UNK        -0.1935 
     47 C          26.1727    2.8061   -9.6498 C.2       7 UNK         0.5018 
     48 O          26.2894    3.0891  -10.8429 O.2       7 UNK        -0.5186 
     49 N          27.1263    3.0178   -8.7284 N.am      8 UNK        -0.4240 
     50 CA         28.4861    3.5222   -8.9421 C.3       8 UNK         0.0235 
     51 CB         28.4653    4.9950   -9.4040 C.3       8 UNK        -0.2000 
     52 C          29.2973    2.6003   -9.8709 C.2       8 UNK         0.4941 
     53 O          29.9152    3.0709  -10.8279 O.2       8 UNK        -0.5273 
     54 N          29.2631    1.2922   -9.5744 N.am      9 UNK        -0.4262 
     55 CA         29.8925    0.2324  -10.3693 C.3       9 UNK         0.0264 
     56 CB         29.4286   -1.1329   -9.8387 C.3       9 UNK        -0.1955 
     57 C          31.4310    0.2857  -10.4074 C.2       9 UNK         0.5031 
     58 O          32.0145   -0.2428  -11.3549 O.2       9 UNK        -0.5390 
     59 N          32.0484    0.9022   -9.3853 N.am      10 UNK        -0.4204 
     60 CA         33.4960    1.0549   -9.1803 C.3       10 UNK         0.0237 
     61 CB         34.0997    2.0077  -10.2349 C.3       10 UNK        -0.1985 
     62 C          34.2152   -0.3064   -9.1102 C.2       10 UNK         0.4970 
     63 O          35.1311   -0.5700   -9.8926 O.2       10 UNK        -0.4914 
     64 N          33.7443   -1.1563   -8.1890 N.am      11 UNK        -0.4285 
     65 CA         34.2473   -2.5145   -7.9428 C.3       11 UNK         0.1007 
     66 C          35.7465   -2.5814   -7.5246 C.2       11 UNK         0.5703 
     67 N          36.4025   -3.7102   -7.7602 N.am      11 UNK        -0.7361 
     68 O          36.3100   -1.6404   -6.9671 O.2       11 UNK        -0.4986 
     69 C69        33.3242   -3.2806   -6.9563 C.3       12 UNK        -0.0947 
     70 S70        33.2364   -2.5388   -5.2884 S.3       12 UNK        -0.2240 
     71 C71        31.4435   -2.4546   -5.0053 C.3       12 UNK         0.0194 
     72 H72        30.0335   -5.6365   -4.6138 H         1 UNK         0.0906 
     73 H73        28.9673   -6.9651   -5.0633 H         1 UNK         0.0906 
     74 H74        28.9203   -5.4558   -5.9699 H         1 UNK         0.0906 
     75 H75        29.3356   -4.5930   -2.7546 H         1 UNK         0.3140 
     76 H76        26.7121   -5.0530   -1.7079 H         1 UNK         0.1085 
     77 H77        28.4833   -3.0648   -0.2995 H         1 UNK         0.0836 
     78 H78        27.5357   -4.3562    0.3306 H         1 UNK         0.0836 
     79 H79        32.0191   -4.4185   -0.2528 H         1 UNK         0.0731 
     80 H80        31.0465   -3.4604    0.8298 H         1 UNK         0.0731 
     81 H81        31.5238   -4.1193   -2.8586 H         1 UNK         0.1312 
     82 H82        30.7527   -0.0439   -3.9366 H         1 UNK         0.1406 
     83 H83        30.4334   -1.2809    0.1595 H         1 UNK         0.1631 
     84 H84        31.0735    1.3675   -0.9460 H         1 UNK         0.0717 
     85 H85        29.4567    0.8460   -0.5424 H         1 UNK         0.0717 
     86 H86        27.9820    0.1798   -2.7113 H         1 UNK         0.0934 
     87 H87        27.1042    1.6657   -2.5709 H         1 UNK         0.0934 
     88 H88        28.7312    1.3904   -5.1005 H         1 UNK         0.0739 
     89 H89        27.0612   -0.8007   -4.4651 H         1 UNK         0.3093 
     90 H90        26.4137   -1.7777   -7.8337 H         1 UNK         0.0818 
     91 H91        28.2352   -2.9475   -5.6653 H         1 UNK         0.0819 
     92 H92        27.4236   -3.8779   -6.9311 H         1 UNK         0.0819 
     93 H93        28.6614   -2.7076   -7.3504 H         1 UNK         0.0819 
     94 H94        25.7562   -2.8599   -5.2410 H         1 UNK         0.3041 
     95 H95        22.5764   -1.2109   -4.9787 H         1 UNK         0.0784 
     96 H96        22.3010   -3.2501   -6.4064 H         1 UNK         0.0793 
     97 H97        23.4340   -4.1292   -5.3887 H         1 UNK         0.0793 
     98 H98        21.8936   -3.5769   -4.7307 H         1 UNK         0.0793 
     99 H99        23.8999   -2.9967   -3.2050 H         1 UNK         0.3024 
    100 H100       25.7012   -0.5791   -1.3218 H         1 UNK         0.1171 
    101 H101       23.3426   -0.3835   -0.4988 H         1 UNK         0.0786 
    102 H102       24.3008   -1.4348    0.5285 H         1 UNK         0.0786 
    103 H103       23.1491   -2.1272   -0.6147 H         1 UNK         0.0786 
    104 H104       25.4240   -3.2685   -0.7267 H         1 UNK         0.2977 
    105 H105       25.1783    1.2783   -4.5028 H         1 UNK         0.3127 
    106 H106       24.6533    4.0136   -4.9999 H         1 UNK         0.0770 
    107 H107       22.8474    1.5570   -5.3265 H         1 UNK         0.0814 
    108 H108       22.2888    3.2246   -5.2706 H         1 UNK         0.0814 
    109 H109       23.0504    2.5103   -3.8581 H         1 UNK         0.0814 
    110 H110       24.7957    1.2352   -7.2560 H         1 UNK         0.2983 
    111 H111       24.0382    2.7186   -9.6043 H         1 UNK         0.0947 
    112 H112       24.8567    0.6757  -10.7855 H         1 UNK         0.0806 
    113 H113       23.8290    0.2398   -9.4303 H         1 UNK         0.0806 
    114 H114       25.5806    0.0848   -9.2963 H         1 UNK         0.0806 
    115 H115       26.9208    2.7359   -7.7775 H         1 UNK         0.3000 
    116 H116       28.9794    3.4893   -7.9694 H         1 UNK         0.0850 
    117 H117       29.4762    5.4014   -9.4538 H         1 UNK         0.0810 
    118 H118       27.8990    5.6180   -8.7116 H         1 UNK         0.0810 
    119 H119       28.0226    5.1055  -10.3943 H         1 UNK         0.0810 
    120 H120       28.7084    0.9891   -8.7736 H         1 UNK         0.3040 
    121 H121       29.5375    0.3394  -11.3965 H         1 UNK         0.0766 
    122 H122       28.3415   -1.2162   -9.8449 H         1 UNK         0.0812 
    123 H123       29.7746   -1.2968   -8.8182 H         1 UNK         0.0812 
    124 H124       29.8207   -1.9460  -10.4514 H         1 UNK         0.0812 
    125 H125       31.4577    1.2904   -8.6637 H         1 UNK         0.3205 
    126 H126       33.6270    1.5240   -8.2038 H         1 UNK         0.0754 
    127 H127       35.1547    2.1961  -10.0319 H         1 UNK         0.0769 
    128 H128       33.5915    2.9720  -10.2335 H         1 UNK         0.0769 
    129 H129       34.0312    1.5962  -11.2426 H         1 UNK         0.0769 
    130 H130       33.0113   -0.8457   -7.5707 H         1 UNK         0.2981 
    131 H131       34.1791   -3.0275   -8.9042 H         1 UNK         0.0541 
    132 H132       35.9515   -4.4935   -8.2067 H         1 UNK         0.3459 
    133 H133       37.3704   -3.7792   -7.4871 H         1 UNK         0.3459 
    134 H134       32.3190   -3.3396   -7.3767 H         1 UNK         0.0612 
    135 H135       33.6554   -4.3150   -6.8499 H         1 UNK         0.0612 
    136 H136       30.9877   -3.4130   -5.2564 H         1 UNK         0.0624 
    137 H137       31.0015   -1.7139   -5.6738 H         1 UNK         0.0624 
@<TRIPOS>BOND
     1    1    2 1    
     2    1   72 1    
     3    1   73 1    
     4    1   74 1    
     5    2    3 2    
     6    2    4 am   BACKBONE|DICT|INTERRES
     7    4    5 1    
     8    4   75 1    
     9    5    6 1    
    10    5   35 1    
    11    5   76 1    
    12    6    7 1    
    13    6   77 1    
    14    6   78 1    
    15    7    8 1    
    16    8    9 1    
    17    8   79 1    
    18    8   80 1    
    19    9   10 ar   
    20    9   14 ar   
    21   10   11 ar   
    22   10   81 1    
    23   11   12 ar   
    24   11   71 1    
    25   12   13 ar   
    26   12   82 1    
    27   13   14 ar   
    28   13   15 1    
    29   14   83 1    
    30   15   16 1    
    31   15   84 1    
    32   15   85 1    
    33   16   17 1    
    34   17   18 1    
    35   17   86 1    
    36   17   87 1    
    37   18   19 1    
    38   18   37 1    
    39   18   88 1    
    40   19   20 am   BACKBONE|DICT|INTERRES
    41   19   89 1    
    42   20   21 2    
    43   20   22 1    
    44   22   23 1    
    45   22   24 1    
    46   22   90 1    
    47   23   91 1    
    48   23   92 1    
    49   23   93 1    
    50   24   25 am   BACKBONE|DICT|INTERRES
    51   24   94 1    
    52   25   26 2    
    53   25   27 1    
    54   27   28 1    
    55   27   29 1    
    56   27   95 1    
    57   28   96 1    
    58   28   97 1    
    59   28   98 1    
    60   29   30 am   BACKBONE|DICT|INTERRES
    61   29   99 1    
    62   30   31 2    
    63   30   32 1    
    64   32   33 1    
    65   32   34 1    
    66   32  100 1    
    67   33  101 1    
    68   33  102 1    
    69   33  103 1    
    70   34   35 am   BACKBONE|DICT|INTERRES
    71   34  104 1    
    72   35   36 2    
    73   37   38 2    
    74   37   39 am   BACKBONE|DICT|INTERRES
    75   39   40 1    
    76   39  105 1    
    77   40   41 1    
    78   40   42 1    
    79   40  106 1    
    80   41  107 1    
    81   41  108 1    
    82   41  109 1    
    83   42   43 2    
    84   42   44 am   BACKBONE|DICT|INTERRES
    85   44   45 1    
    86   44  110 1    
    87   45   46 1    
    88   45   47 1    
    89   45  111 1    
    90   46  112 1    
    91   46  113 1    
    92   46  114 1    
    93   47   48 2    
    94   47   49 am   BACKBONE|DICT|INTERRES
    95   49   50 1    
    96   49  115 1    
    97   50   51 1    
    98   50   52 1    
    99   50  116 1    
   100   51  117 1    
   101   51  118 1    
   102   51  119 1    
   103   52   53 2    
   104   52   54 am   BACKBONE|DICT|INTERRES
   105   54   55 1    
   106   54  120 1    
   107   55   56 1    
   108   55   57 1    
   109   55  121 1    
   110   56  122 1    
   111   56  123 1    
   112   56  124 1    
   113   57   58 2    
   114   57   59 am   BACKBONE|DICT|INTERRES
   115   59   60 1    
   116   59  125 1    
   117   60   61 1    
   118   60   62 1    
   119   60  126 1    
   120   61  127 1    
   121   61  128 1    
   122   61  129 1    
   123   62   63 2    
   124   62   64 am   BACKBONE|DICT|INTERRES
   125   64   65 1    
   126   64  130 1    
   127   65   66 1    
   128   65   69 1    
   129   65  131 1    
   130   66   67 am   BACKBONE|DICT|INTERRES
   131   66   68 2    
   132   67  132 1    
   133   67  133 1    
   134   69   70 1    
   135   69  134 1    
   136   69  135 1    
   137   70   71 1    
   138   71  136 1    
   139   71  137 1    
@<TRIPOS>SUBSTRUCTURE
     1 UNK         1 GROUP             0       ****    0 ROOT    
