@<TRIPOS>MOLECULE
3R137
137   139    1
SMALL
USER_CHARGES


@<TRIPOS>ATOM
      1 CA         30.0280   -0.7973    3.3976 C.3       0 UNK        -0.2020 
      2 C          29.9780   -0.6311    1.8860 C.2       0 UNK         0.4855 
      3 O          30.6882    0.2128    1.3386 O.2       0 UNK        -0.5197 
      4 N          29.1418   -1.4232    1.2104 N.am      1 UNK        -0.4892 
      5 CA         28.9409   -1.4156   -0.2379 C.3       1 UNK         0.0835 
      6 C6         30.0893   -2.1122   -1.0180 C.3       12 UNK        -0.0855 
      7 S7         30.4224   -3.8332   -0.5053 S.3       12 UNK        -0.2931 
      8 C8         31.8394   -4.2377   -1.5845 C.3       12 UNK         0.0378 
      9 C9         31.5084   -4.3340   -3.0747 C.ar      12 UNK        -0.0802 
     10 C10        32.5002   -4.0268   -4.0122 C.ar      12 UNK        -0.0944 
     11 C11        32.2491   -4.1431   -5.3821 C.ar      12 UNK        -0.0787 
     12 C12        30.9942   -4.5774   -5.8163 C.ar      12 UNK        -0.0862 
     13 C13        29.9804   -4.8639   -4.8954 C.ar      12 UNK        -0.0733 
     14 C14        30.2519   -4.7556   -3.5285 C.ar      12 UNK        -0.0832 
     15 C15        28.5919   -5.3095   -5.3496 C.3       12 UNK         0.0240 
     16 S16        27.9350   -4.3985   -6.7901 S.3       12 UNK        -0.2522 
     17 C17        28.2358   -2.6594   -6.3321 C.3       12 UNK        -0.0967 
     18 CA         27.4516   -1.6977   -7.2513 C.3       5 UNK         0.0660 
     19 N          26.0067   -1.7533   -7.0248 N.am      5 UNK        -0.4015 
     20 C          25.0917   -1.2418   -7.8587 C.2       4 UNK         0.4946 
     21 O          25.3663   -0.6769   -8.9168 O.2       4 UNK        -0.5353 
     22 CA         23.6249   -1.3375   -7.4126 C.3       4 UNK         0.0277 
     23 CB         23.0732   -2.7535   -7.6444 C.3       4 UNK        -0.1981 
     24 N          23.4447   -0.9553   -6.0101 N.am      4 UNK        -0.4209 
     25 C          23.6642    0.2783   -5.5328 C.2       3 UNK         0.4942 
     26 O          24.0051    1.2343   -6.2295 O.2       3 UNK        -0.5208 
     27 CA         23.5145    0.4687   -4.0144 C.3       3 UNK         0.0250 
     28 CB         22.0435    0.7182   -3.6444 C.3       3 UNK        -0.1990 
     29 N          24.0451   -0.6402   -3.2102 N.am      3 UNK        -0.4232 
     30 C          25.3186   -1.0561   -3.2309 C.2       2 UNK         0.4993 
     31 O          26.1719   -0.6328   -4.0146 O.2       2 UNK        -0.5286 
     32 CA         25.7231   -2.1311   -2.2212 C.3       2 UNK         0.0209 
     33 CB         25.7147   -3.5257   -2.8696 C.3       2 UNK        -0.1931 
     34 N          27.0702   -1.7971   -1.7692 N.am      2 UNK        -0.4546 
     35 C          27.5509   -2.0063   -0.5402 C.2       1 UNK         0.5154 
     36 O          26.9344   -2.6139    0.3417 O.2       1 UNK        -0.5181 
     37 C          27.9916   -0.2628   -7.1398 C.2       5 UNK         0.5014 
     38 O          28.8482    0.1122   -7.9382 O.2       5 UNK        -0.5248 
     39 N          27.4857    0.5254   -6.1815 N.am      6 UNK        -0.4434 
     40 CA         27.8184    1.9429   -6.0171 C.3       6 UNK         0.0363 
     41 CB         27.1717    2.4813   -4.7322 C.3       6 UNK        -0.1936 
     42 C          27.4135    2.7947   -7.2326 C.2       6 UNK         0.5081 
     43 O          28.1495    3.7101   -7.5981 O.2       6 UNK        -0.5248 
     44 N          26.2750    2.4640   -7.8552 N.am      7 UNK        -0.4718 
     45 CA         25.8185    3.0764   -9.1010 C.3       7 UNK         0.0273 
     46 CB         24.3180    2.7997   -9.2919 C.3       7 UNK        -0.1935 
     47 C          26.6266    2.5994  -10.3203 C.2       7 UNK         0.5018 
     48 O          27.0797    3.4339  -11.1047 O.2       7 UNK        -0.5186 
     49 N          26.7649    1.2754  -10.4785 N.am      8 UNK        -0.4240 
     50 CA         27.3276    0.6539  -11.6796 C.3       8 UNK         0.0235 
     51 CB         26.8181   -0.7925  -11.7929 C.3       8 UNK        -0.2000 
     52 C          28.8620    0.6761  -11.7527 C.2       8 UNK         0.4941 
     53 O          29.3994    0.9004  -12.8384 O.2       8 UNK        -0.5273 
     54 N          29.5369    0.3927  -10.6315 N.am      9 UNK        -0.4262 
     55 CA         30.9735    0.0987  -10.5815 C.3       9 UNK         0.0264 
     56 CB         31.1463   -1.3851  -10.2076 C.3       9 UNK        -0.1955 
     57 C          31.7521    0.9946   -9.6048 C.2       9 UNK         0.5031 
     58 O          32.9689    0.8354   -9.5032 O.2       9 UNK        -0.5390 
     59 N          31.0629    1.8877   -8.8800 N.am      10 UNK        -0.4204 
     60 CA         31.5578    2.8175   -7.8510 C.3       10 UNK         0.0237 
     61 CB         32.6389    3.7665   -8.4059 C.3       10 UNK        -0.1985 
     62 C          32.0183    2.1541   -6.5379 C.2       10 UNK         0.4970 
     63 O          31.8841    2.7786   -5.4853 O.2       10 UNK        -0.4914 
     64 N          32.5319    0.9201   -6.6015 N.am      11 UNK        -0.4285 
     65 CA         32.9540    0.1076   -5.4492 C.3       11 UNK         0.1007 
     66 C          31.8122   -0.3446   -4.4942 C.2       11 UNK         0.5703 
     67 N          30.5511   -0.3013   -4.9051 N.am      11 UNK        -0.7361 
     68 O          32.0789   -0.7068   -3.3521 O.2       11 UNK        -0.4986 
     69 C69        33.8604   -1.0751   -5.8827 C.3       12 UNK        -0.0947 
     70 S70        33.1094   -2.1722   -7.1373 S.3       12 UNK        -0.2240 
     71 C71        33.3330   -3.8216   -6.3999 C.3       12 UNK         0.0194 
     72 H72        31.0376   -1.0603    3.7123 H         1 UNK         0.0906 
     73 H73        29.7498    0.1353    3.8877 H         1 UNK         0.0906 
     74 H74        29.3512   -1.5781    3.7444 H         1 UNK         0.0906 
     75 H75        28.5362   -2.0787    1.6909 H         1 UNK         0.3140 
     76 H76        28.9011   -0.3715   -0.5575 H         1 UNK         0.1085 
     77 H77        29.8900   -2.0964   -2.0908 H         1 UNK         0.0836 
     78 H78        31.0092   -1.5399   -0.8883 H         1 UNK         0.0836 
     79 H79        32.6191   -3.4918   -1.4207 H         1 UNK         0.0731 
     80 H80        32.2548   -5.1939   -1.2643 H         1 UNK         0.0731 
     81 H81        33.4740   -3.7000   -3.6742 H         1 UNK         0.1312 
     82 H82        30.8020   -4.6721   -6.8762 H         1 UNK         0.1406 
     83 H83        29.4782   -5.0042   -2.8155 H         1 UNK         0.1631 
     84 H84        27.8762   -5.2138   -4.5326 H         1 UNK         0.0717 
     85 H85        28.6307   -6.3707   -5.5981 H         1 UNK         0.0717 
     86 H86        27.9821   -2.4996   -5.2826 H         1 UNK         0.0934 
     87 H87        29.3088   -2.4774   -6.4207 H         1 UNK         0.0934 
     88 H88        27.6297   -2.0061   -8.2844 H         1 UNK         0.0739 
     89 H89        25.7014   -2.1679   -6.1577 H         1 UNK         0.3093 
     90 H90        23.0480   -0.6421   -8.0264 H         1 UNK         0.0818 
     91 H91        22.0094   -2.8072   -7.4123 H         1 UNK         0.0819 
     92 H92        23.1899   -3.0495   -8.6881 H         1 UNK         0.0819 
     93 H93        23.5880   -3.4979   -7.0357 H         1 UNK         0.0819 
     94 H94        23.1602   -1.6775   -5.3647 H         1 UNK         0.3041 
     95 H95        24.0838    1.3609   -3.7460 H         1 UNK         0.0784 
     96 H96        21.6327    1.5502   -4.2185 H         1 UNK         0.0793 
     97 H97        21.4206   -0.1545   -3.8444 H         1 UNK         0.0793 
     98 H98        21.9368    0.9730   -2.5897 H         1 UNK         0.0793 
     99 H99        23.4078   -1.0560   -2.5458 H         1 UNK         0.3024 
    100 H100       25.0312   -2.1109   -1.3757 H         1 UNK         0.1171 
    101 H101       24.7092   -3.8038   -3.1876 H         1 UNK         0.0786 
    102 H102       26.0574   -4.2895   -2.1713 H         1 UNK         0.0786 
    103 H103       26.3580   -3.5634   -3.7484 H         1 UNK         0.0786 
    104 H104       27.5964   -1.2469   -2.4361 H         1 UNK         0.2977 
    105 H105       26.8384    0.1258   -5.5023 H         1 UNK         0.3127 
    106 H106       28.9019    2.0193   -5.9078 H         1 UNK         0.0770 
    107 H107       26.0840    2.4260   -4.7761 H         1 UNK         0.0814 
    108 H108       27.4401    3.5258   -4.5693 H         1 UNK         0.0814 
    109 H109       27.5012    1.9206   -3.8573 H         1 UNK         0.0814 
    110 H110       25.6906    1.7376   -7.4554 H         1 UNK         0.2983 
    111 H111       25.9503    4.1579   -9.0199 H         1 UNK         0.0947 
    112 H112       23.9502    3.2549  -10.2124 H         1 UNK         0.0806 
    113 H113       23.7335    3.2122   -8.4692 H         1 UNK         0.0806 
    114 H114       24.1040    1.7317   -9.3462 H         1 UNK         0.0806 
    115 H115       26.3301    0.6492   -9.8026 H         1 UNK         0.3000 
    116 H116       26.9539    1.2007  -12.5485 H         1 UNK         0.0850 
    117 H117       27.1885   -1.2689  -12.7016 H         1 UNK         0.0810 
    118 H118       25.7291   -0.8273  -11.8293 H         1 UNK         0.0810 
    119 H119       27.1426   -1.4023  -10.9486 H         1 UNK         0.0810 
    120 H120       29.0295    0.2449   -9.7606 H         1 UNK         0.3040 
    121 H121       31.4308    0.2541  -11.5606 H         1 UNK         0.0766 
    122 H122       32.1996   -1.6683  -10.1896 H         1 UNK         0.0812 
    123 H123       30.6507   -2.0358  -10.9280 H         1 UNK         0.0812 
    124 H124       30.7334   -1.6017   -9.2213 H         1 UNK         0.0812 
    125 H125       30.0574    1.8752   -8.9882 H         1 UNK         0.3205 
    126 H126       30.7015    3.4370   -7.5869 H         1 UNK         0.0754 
    127 H127       32.8927    4.5339   -7.6734 H         1 UNK         0.0769 
    128 H128       32.2937    4.2783   -9.3043 H         1 UNK         0.0769 
    129 H129       33.5616    3.2403   -8.6514 H         1 UNK         0.0769 
    130 H130       32.6550    0.5004   -7.5159 H         1 UNK         0.2981 
    131 H131       33.5802    0.7616   -4.8394 H         1 UNK         0.0541 
    132 H132       29.8205   -0.5708   -4.2705 H         1 UNK         0.3459 
    133 H133       30.3374    0.0022   -5.8413 H         1 UNK         0.3459 
    134 H134       34.1711   -1.6570   -5.0135 H         1 UNK         0.0612 
    135 H135       34.7829   -0.6810   -6.3112 H         1 UNK         0.0612 
    136 H136       33.3056   -4.5636   -7.1992 H         1 UNK         0.0624 
    137 H137       34.3255   -3.8968   -5.9530 H         1 UNK         0.0624 
@<TRIPOS>BOND
     1    1    2 1    
     2    1   72 1    
     3    1   73 1    
     4    1   74 1    
     5    2    3 2    
     6    2    4 am   BACKBONE|DICT|INTERRES
     7    4    5 1    
     8    4   75 1    
     9    5    6 1    
    10    5   35 1    
    11    5   76 1    
    12    6    7 1    
    13    6   77 1    
    14    6   78 1    
    15    7    8 1    
    16    8    9 1    
    17    8   79 1    
    18    8   80 1    
    19    9   10 ar   
    20    9   14 ar   
    21   10   11 ar   
    22   10   81 1    
    23   11   12 ar   
    24   11   71 1    
    25   12   13 ar   
    26   12   82 1    
    27   13   14 ar   
    28   13   15 1    
    29   14   83 1    
    30   15   16 1    
    31   15   84 1    
    32   15   85 1    
    33   16   17 1    
    34   17   18 1    
    35   17   86 1    
    36   17   87 1    
    37   18   19 1    
    38   18   37 1    
    39   18   88 1    
    40   19   20 am   BACKBONE|DICT|INTERRES
    41   19   89 1    
    42   20   21 2    
    43   20   22 1    
    44   22   23 1    
    45   22   24 1    
    46   22   90 1    
    47   23   91 1    
    48   23   92 1    
    49   23   93 1    
    50   24   25 am   BACKBONE|DICT|INTERRES
    51   24   94 1    
    52   25   26 2    
    53   25   27 1    
    54   27   28 1    
    55   27   29 1    
    56   27   95 1    
    57   28   96 1    
    58   28   97 1    
    59   28   98 1    
    60   29   30 am   BACKBONE|DICT|INTERRES
    61   29   99 1    
    62   30   31 2    
    63   30   32 1    
    64   32   33 1    
    65   32   34 1    
    66   32  100 1    
    67   33  101 1    
    68   33  102 1    
    69   33  103 1    
    70   34   35 am   BACKBONE|DICT|INTERRES
    71   34  104 1    
    72   35   36 2    
    73   37   38 2    
    74   37   39 am   BACKBONE|DICT|INTERRES
    75   39   40 1    
    76   39  105 1    
    77   40   41 1    
    78   40   42 1    
    79   40  106 1    
    80   41  107 1    
    81   41  108 1    
    82   41  109 1    
    83   42   43 2    
    84   42   44 am   BACKBONE|DICT|INTERRES
    85   44   45 1    
    86   44  110 1    
    87   45   46 1    
    88   45   47 1    
    89   45  111 1    
    90   46  112 1    
    91   46  113 1    
    92   46  114 1    
    93   47   48 2    
    94   47   49 am   BACKBONE|DICT|INTERRES
    95   49   50 1    
    96   49  115 1    
    97   50   51 1    
    98   50   52 1    
    99   50  116 1    
   100   51  117 1    
   101   51  118 1    
   102   51  119 1    
   103   52   53 2    
   104   52   54 am   BACKBONE|DICT|INTERRES
   105   54   55 1    
   106   54  120 1    
   107   55   56 1    
   108   55   57 1    
   109   55  121 1    
   110   56  122 1    
   111   56  123 1    
   112   56  124 1    
   113   57   58 2    
   114   57   59 am   BACKBONE|DICT|INTERRES
   115   59   60 1    
   116   59  125 1    
   117   60   61 1    
   118   60   62 1    
   119   60  126 1    
   120   61  127 1    
   121   61  128 1    
   122   61  129 1    
   123   62   63 2    
   124   62   64 am   BACKBONE|DICT|INTERRES
   125   64   65 1    
   126   64  130 1    
   127   65   66 1    
   128   65   69 1    
   129   65  131 1    
   130   66   67 am   BACKBONE|DICT|INTERRES
   131   66   68 2    
   132   67  132 1    
   133   67  133 1    
   134   69   70 1    
   135   69  134 1    
   136   69  135 1    
   137   70   71 1    
   138   71  136 1    
   139   71  137 1    
@<TRIPOS>SUBSTRUCTURE
     1 UNK         1 GROUP             0       ****    0 ROOT    
