@<TRIPOS>MOLECULE
3R137
137   139    1
SMALL
USER_CHARGES


@<TRIPOS>ATOM
      1 CA         24.8759   -6.8407   -6.0110 C.3       0 UNK        -0.2020 
      2 C          24.8472   -6.3058   -4.5869 C.2       0 UNK         0.4855 
      3 O          23.9022   -6.5828   -3.8468 O.2       0 UNK        -0.5197 
      4 N          25.8806   -5.5503   -4.1967 N.am      1 UNK        -0.4892 
      5 CA         25.9899   -4.8903   -2.8908 C.3       1 UNK         0.0835 
      6 C6         27.4384   -4.4231   -2.6048 C.3       12 UNK        -0.0855 
      7 S7         28.6555   -5.7874   -2.5656 S.3       12 UNK        -0.2931 
      8 C8         29.8084   -5.3430   -3.9212 C.3       12 UNK         0.0378 
      9 C9         30.6232   -4.0555   -3.7404 C.ar      12 UNK        -0.0802 
     10 C10        31.5215   -3.6853   -4.7497 C.ar      12 UNK        -0.0944 
     11 C11        32.2463   -2.4896   -4.6712 C.ar      12 UNK        -0.0787 
     12 C12        32.0527   -1.6492   -3.5694 C.ar      12 UNK        -0.0862 
     13 C13        31.1591   -1.9986   -2.5591 C.ar      12 UNK        -0.0733 
     14 C14        30.4788   -3.2135   -2.6305 C.ar      12 UNK        -0.0832 
     15 C15        30.8665   -1.0390   -1.4203 C.3       12 UNK         0.0240 
     16 S16        29.2751   -0.2012   -1.7032 S.3       12 UNK        -0.2522 
     17 C17        29.7235    1.1054   -2.8980 C.3       12 UNK        -0.0967 
     18 CA         29.5799    0.7214   -4.3970 C.3       5 UNK         0.0660 
     19 N          28.3219    0.0268   -4.6965 N.am      5 UNK        -0.4015 
     20 C          27.8841   -0.3459   -5.9097 C.2       4 UNK         0.4946 
     21 O          28.5238   -0.2068   -6.9544 O.2       4 UNK        -0.5353 
     22 CA         26.4545   -0.8990   -6.0108 C.3       4 UNK         0.0277 
     23 CB         26.4971   -2.4259   -6.1668 C.3       4 UNK        -0.1981 
     24 N          25.5459   -0.5118   -4.9203 N.am      4 UNK        -0.4209 
     25 C          25.2749    0.7544   -4.5522 C.2       3 UNK         0.4942 
     26 O          25.8496    1.7346   -5.0350 O.2       3 UNK        -0.5208 
     27 CA         24.1880    0.9953   -3.4883 C.3       3 UNK         0.0250 
     28 CB         22.9499    1.6372   -4.1359 C.3       3 UNK        -0.1990 
     29 N          23.7747   -0.2089   -2.7641 N.am      3 UNK        -0.4232 
     30 C          24.4924   -0.8145   -1.8089 C.2       2 UNK         0.4993 
     31 O          25.5907   -0.4129   -1.4243 O.2       2 UNK        -0.5286 
     32 CA         23.9100   -2.1025   -1.1905 C.3       2 UNK         0.0209 
     33 CB         22.4188   -2.3498   -1.5202 C.3       2 UNK        -0.1931 
     34 N          24.7185   -3.2779   -1.5426 N.am      2 UNK        -0.4546 
     35 C          25.0184   -3.6932   -2.7827 C.2       1 UNK         0.5154 
     36 O          24.6014   -3.1380   -3.8036 O.2       1 UNK        -0.5181 
     37 C          29.8048    1.9796   -5.2614 C.2       5 UNK         0.5014 
     38 O          30.9538    2.2793   -5.5916 O.2       5 UNK        -0.5248 
     39 N          28.7090    2.6647   -5.6192 N.am      6 UNK        -0.4434 
     40 CA         28.6828    3.7818   -6.5600 C.3       6 UNK         0.0363 
     41 CB         28.1679    5.0360   -5.8355 C.3       6 UNK        -0.1936 
     42 C          27.7986    3.4769   -7.7816 C.2       6 UNK         0.5081 
     43 O          28.1170    3.9406   -8.8759 O.2       6 UNK        -0.5248 
     44 N          26.6900    2.7473   -7.5844 N.am      7 UNK        -0.4718 
     45 CA         25.6076    2.6391   -8.5667 C.3       7 UNK         0.0273 
     46 CB         24.2874    2.3739   -7.8227 C.3       7 UNK        -0.1935 
     47 C          25.8016    1.5856   -9.6703 C.2       7 UNK         0.5018 
     48 O          25.0912    1.6742  -10.6736 O.2       7 UNK        -0.5186 
     49 N          26.6903    0.5977   -9.4842 N.am      8 UNK        -0.4240 
     50 CA         26.8112   -0.5369  -10.4105 C.3       8 UNK         0.0235 
     51 CB         25.8406   -1.6658  -10.0136 C.3       8 UNK        -0.2000 
     52 C          28.2496   -1.0419  -10.5449 C.2       8 UNK         0.4941 
     53 O          28.7977   -1.0050  -11.6470 O.2       8 UNK        -0.5273 
     54 N          28.8385   -1.5048   -9.4345 N.am      9 UNK        -0.4262 
     55 CA         30.2392   -1.9293   -9.3644 C.3       9 UNK         0.0264 
     56 CB         30.4637   -2.7771   -8.1022 C.3       9 UNK        -0.1955 
     57 C          31.1843   -0.7179   -9.4083 C.2       9 UNK         0.5031 
     58 O          32.2210   -0.7838  -10.0690 O.2       9 UNK        -0.5390 
     59 N          30.7685    0.3745   -8.7475 N.am      10 UNK        -0.4204 
     60 CA         31.3000    1.7388   -8.8621 C.3       10 UNK         0.0237 
     61 CB         31.0093    2.3040  -10.2690 C.3       10 UNK        -0.1985 
     62 C          32.7768    1.9096   -8.4508 C.2       10 UNK         0.4970 
     63 O          33.4228    2.8569   -8.9035 O.2       10 UNK        -0.4914 
     64 N          33.2889    1.0072   -7.6042 N.am      11 UNK        -0.4285 
     65 CA         34.6707    1.0338   -7.1028 C.3       11 UNK         0.1007 
     66 C          34.9182    2.0420   -5.9407 C.2       11 UNK         0.5703 
     67 N          33.8942    2.6446   -5.3446 N.am      11 UNK        -0.7361 
     68 O          36.0673    2.2956   -5.5865 O.2       11 UNK        -0.4986 
     69 C69        35.2123   -0.3980   -6.8248 C.3       12 UNK        -0.0947 
     70 S70        34.6441   -1.1630   -5.2689 S.3       12 UNK        -0.2240 
     71 C71        33.1687   -2.0814   -5.8176 C.3       12 UNK         0.0194 
     72 H72        24.8511   -7.9300   -6.0037 H         1 UNK         0.0906 
     73 H73        24.0066   -6.4832   -6.5623 H         1 UNK         0.0906 
     74 H74        25.7703   -6.5253   -6.5481 H         1 UNK         0.0906 
     75 H75        26.6258   -5.3549   -4.8475 H         1 UNK         0.3140 
     76 H76        25.7040   -5.6162   -2.1259 H         1 UNK         0.1085 
     77 H77        27.4875   -3.9281   -1.6328 H         1 UNK         0.0836 
     78 H78        27.7519   -3.6737   -3.3321 H         1 UNK         0.0836 
     79 H79        30.5034   -6.1735   -4.0527 H         1 UNK         0.0731 
     80 H80        29.2387   -5.2711   -4.8488 H         1 UNK         0.0731 
     81 H81        31.6401   -4.3239   -5.6146 H         1 UNK         0.1312 
     82 H82        32.5646   -0.6986   -3.5129 H         1 UNK         0.1406 
     83 H83        29.8029   -3.4615   -1.8271 H         1 UNK         0.1631 
     84 H84        31.6658   -0.3061   -1.3005 H         1 UNK         0.0717 
     85 H85        30.8141   -1.5927   -0.4816 H         1 UNK         0.0717 
     86 H86        29.0828    1.9592   -2.6665 H         1 UNK         0.0934 
     87 H87        30.7421    1.4403   -2.6917 H         1 UNK         0.0934 
     88 H88        30.3730    0.0257   -4.6634 H         1 UNK         0.0739 
     89 H89        27.7196   -0.1371   -3.9023 H         1 UNK         0.3093 
     90 H90        26.0248   -0.4852   -6.9239 H         1 UNK         0.0818 
     91 H91        25.5071   -2.8336   -6.3729 H         1 UNK         0.0819 
     92 H92        27.1480   -2.7266   -6.9884 H         1 UNK         0.0819 
     93 H93        26.8788   -2.9057   -5.2687 H         1 UNK         0.0819 
     94 H94        25.0462   -1.2715   -4.4662 H         1 UNK         0.3041 
     95 H95        24.5998    1.7042   -2.7668 H         1 UNK         0.0784 
     96 H96        23.2114    2.5671   -4.6429 H         1 UNK         0.0793 
     97 H97        22.4940    0.9796   -4.8773 H         1 UNK         0.0793 
     98 H98        22.1926    1.8812   -3.3905 H         1 UNK         0.0793 
     99 H99        22.8983   -0.6284   -3.0400 H         1 UNK         0.3024 
    100 H100       23.9904   -1.9760   -0.1093 H         1 UNK         0.1171 
    101 H101       22.0415   -3.2170   -0.9780 H         1 UNK         0.0786 
    102 H102       22.2492   -2.5329   -2.5819 H         1 UNK         0.0786 
    103 H103       21.8022   -1.4998   -1.2244 H         1 UNK         0.0786 
    104 H104       25.1332   -3.7653   -0.7601 H         1 UNK         0.2977 
    105 H105       27.8089    2.3316   -5.2894 H         1 UNK         0.3127 
    106 H106       29.6877    3.9981   -6.9274 H         1 UNK         0.0770 
    107 H107       27.1620    4.8902   -5.4391 H         1 UNK         0.0814 
    108 H108       28.1330    5.8914   -6.5116 H         1 UNK         0.0814 
    109 H109       28.8193    5.3066   -5.0044 H         1 UNK         0.0814 
    110 H110       26.4702    2.4094   -6.6510 H         1 UNK         0.2983 
    111 H111       25.5094    3.6040   -9.0701 H         1 UNK         0.0947 
    112 H112       23.4398    2.3986   -8.5091 H         1 UNK         0.0806 
    113 H113       24.1025    3.1271   -7.0567 H         1 UNK         0.0806 
    114 H114       24.2837    1.3956   -7.3418 H         1 UNK         0.0806 
    115 H115       27.2890    0.6127   -8.6682 H         1 UNK         0.3000 
    116 H116       26.5296   -0.2093  -11.4142 H         1 UNK         0.0850 
    117 H117       25.9491   -2.5259  -10.6758 H         1 UNK         0.0810 
    118 H118       24.8038   -1.3362  -10.0828 H         1 UNK         0.0810 
    119 H119       26.0098   -2.0139   -8.9962 H         1 UNK         0.0810 
    120 H120       28.3557   -1.4238   -8.5485 H         1 UNK         0.3040 
    121 H121       30.4539   -2.5544  -10.2340 H         1 UNK         0.0766 
    122 H122       31.4859   -3.1548   -8.0695 H         1 UNK         0.0812 
    123 H123       29.8016   -3.6428   -8.0839 H         1 UNK         0.0812 
    124 H124       30.2919   -2.2077   -7.1884 H         1 UNK         0.0812 
    125 H125       29.9380    0.2723   -8.1682 H         1 UNK         0.3205 
    126 H126       30.7272    2.3400   -8.1608 H         1 UNK         0.0754 
    127 H127       31.2523    3.3657  -10.3259 H         1 UNK         0.0769 
    128 H128       29.9537    2.2050  -10.5236 H         1 UNK         0.0769 
    129 H129       31.5899    1.7928  -11.0376 H         1 UNK         0.0769 
    130 H130       32.6883    0.2836   -7.2443 H         1 UNK         0.2981 
    131 H131       35.2857    1.4128   -7.9214 H         1 UNK         0.0541 
    132 H132       32.9349    2.4468   -5.6103 H         1 UNK         0.3459 
    133 H133       34.0789    3.2994   -4.6024 H         1 UNK         0.3459 
    134 H134       36.3022   -0.3651   -6.7808 H         1 UNK         0.0612 
    135 H135       34.9781   -1.0607   -7.6598 H         1 UNK         0.0612 
    136 H136       32.5953   -1.4617   -6.5051 H         1 UNK         0.0624 
    137 H137       33.4961   -2.9583   -6.3780 H         1 UNK         0.0624 
@<TRIPOS>BOND
     1    1    2 1    
     2    1   72 1    
     3    1   73 1    
     4    1   74 1    
     5    2    3 2    
     6    2    4 am   BACKBONE|DICT|INTERRES
     7    4    5 1    
     8    4   75 1    
     9    5    6 1    
    10    5   35 1    
    11    5   76 1    
    12    6    7 1    
    13    6   77 1    
    14    6   78 1    
    15    7    8 1    
    16    8    9 1    
    17    8   79 1    
    18    8   80 1    
    19    9   10 ar   
    20    9   14 ar   
    21   10   11 ar   
    22   10   81 1    
    23   11   12 ar   
    24   11   71 1    
    25   12   13 ar   
    26   12   82 1    
    27   13   14 ar   
    28   13   15 1    
    29   14   83 1    
    30   15   16 1    
    31   15   84 1    
    32   15   85 1    
    33   16   17 1    
    34   17   18 1    
    35   17   86 1    
    36   17   87 1    
    37   18   19 1    
    38   18   37 1    
    39   18   88 1    
    40   19   20 am   BACKBONE|DICT|INTERRES
    41   19   89 1    
    42   20   21 2    
    43   20   22 1    
    44   22   23 1    
    45   22   24 1    
    46   22   90 1    
    47   23   91 1    
    48   23   92 1    
    49   23   93 1    
    50   24   25 am   BACKBONE|DICT|INTERRES
    51   24   94 1    
    52   25   26 2    
    53   25   27 1    
    54   27   28 1    
    55   27   29 1    
    56   27   95 1    
    57   28   96 1    
    58   28   97 1    
    59   28   98 1    
    60   29   30 am   BACKBONE|DICT|INTERRES
    61   29   99 1    
    62   30   31 2    
    63   30   32 1    
    64   32   33 1    
    65   32   34 1    
    66   32  100 1    
    67   33  101 1    
    68   33  102 1    
    69   33  103 1    
    70   34   35 am   BACKBONE|DICT|INTERRES
    71   34  104 1    
    72   35   36 2    
    73   37   38 2    
    74   37   39 am   BACKBONE|DICT|INTERRES
    75   39   40 1    
    76   39  105 1    
    77   40   41 1    
    78   40   42 1    
    79   40  106 1    
    80   41  107 1    
    81   41  108 1    
    82   41  109 1    
    83   42   43 2    
    84   42   44 am   BACKBONE|DICT|INTERRES
    85   44   45 1    
    86   44  110 1    
    87   45   46 1    
    88   45   47 1    
    89   45  111 1    
    90   46  112 1    
    91   46  113 1    
    92   46  114 1    
    93   47   48 2    
    94   47   49 am   BACKBONE|DICT|INTERRES
    95   49   50 1    
    96   49  115 1    
    97   50   51 1    
    98   50   52 1    
    99   50  116 1    
   100   51  117 1    
   101   51  118 1    
   102   51  119 1    
   103   52   53 2    
   104   52   54 am   BACKBONE|DICT|INTERRES
   105   54   55 1    
   106   54  120 1    
   107   55   56 1    
   108   55   57 1    
   109   55  121 1    
   110   56  122 1    
   111   56  123 1    
   112   56  124 1    
   113   57   58 2    
   114   57   59 am   BACKBONE|DICT|INTERRES
   115   59   60 1    
   116   59  125 1    
   117   60   61 1    
   118   60   62 1    
   119   60  126 1    
   120   61  127 1    
   121   61  128 1    
   122   61  129 1    
   123   62   63 2    
   124   62   64 am   BACKBONE|DICT|INTERRES
   125   64   65 1    
   126   64  130 1    
   127   65   66 1    
   128   65   69 1    
   129   65  131 1    
   130   66   67 am   BACKBONE|DICT|INTERRES
   131   66   68 2    
   132   67  132 1    
   133   67  133 1    
   134   69   70 1    
   135   69  134 1    
   136   69  135 1    
   137   70   71 1    
   138   71  136 1    
   139   71  137 1    
@<TRIPOS>SUBSTRUCTURE
     1 UNK         1 GROUP             0       ****    0 ROOT    
