@<TRIPOS>MOLECULE
3R137
137   139    1
SMALL
USER_CHARGES


@<TRIPOS>ATOM
      1 CA         25.3053   -1.2808    1.9183 C.3       0 UNK        -0.2020 
      2 C          25.9084   -0.6179    0.6894 C.2       0 UNK         0.4855 
      3 O          25.8644    0.6076    0.5688 O.2       0 UNK        -0.5197 
      4 N          26.4726   -1.4148   -0.2265 N.am      1 UNK        -0.4892 
      5 CA         27.0783   -0.9622   -1.4833 C.3       1 UNK         0.0835 
      6 C6         28.0967   -1.9894   -2.0382 C.3       12 UNK        -0.0855 
      7 S7         29.5397   -2.1933   -0.9439 S.3       12 UNK        -0.2931 
      8 C8         30.3484   -3.6425   -1.6952 C.3       12 UNK         0.0378 
      9 C9         30.7560   -3.3843   -3.1395 C.ar      12 UNK        -0.0802 
     10 C10        31.8405   -2.5489   -3.4250 C.ar      12 UNK        -0.0944 
     11 C11        32.2158   -2.2962   -4.7479 C.ar      12 UNK        -0.0787 
     12 C12        31.4893   -2.8874   -5.7885 C.ar      12 UNK        -0.0862 
     13 C13        30.4172   -3.7414   -5.5162 C.ar      12 UNK        -0.0733 
     14 C14        30.0515   -3.9828   -4.1890 C.ar      12 UNK        -0.0832 
     15 C15        29.6768   -4.4241   -6.6573 C.3       12 UNK         0.0240 
     16 S16        28.4540   -3.3253   -7.4334 S.3       12 UNK        -0.2522 
     17 C17        27.1899   -3.1974   -6.1232 C.3       12 UNK        -0.0967 
     18 CA         25.7892   -2.7809   -6.6516 C.3       5 UNK         0.0660 
     19 N          24.7646   -3.0366   -5.6511 N.am      5 UNK        -0.4015 
     20 C          24.1092   -4.1802   -5.4379 C.2       4 UNK         0.4946 
     21 O          24.3048   -5.2160   -6.0750 O.2       4 UNK        -0.5353 
     22 CA         23.0472   -4.1620   -4.3225 C.3       4 UNK         0.0277 
     23 CB         23.6737   -4.5780   -2.9815 C.3       4 UNK        -0.1981 
     24 N          22.4168   -2.8479   -4.1694 N.am      4 UNK        -0.4209 
     25 C          21.5934   -2.2777   -5.0585 C.2       3 UNK         0.4942 
     26 O          21.1640   -2.8563   -6.0572 O.2       3 UNK        -0.5208 
     27 CA         21.2129   -0.8032   -4.8277 C.3       3 UNK         0.0250 
     28 CB         20.0081   -0.6729   -3.8746 C.3       3 UNK        -0.1990 
     29 N          22.3424    0.0473   -4.4164 N.am      3 UNK        -0.4232 
     30 C          23.0212    0.0375   -3.2607 C.2       2 UNK         0.4993 
     31 O          22.7463   -0.6930   -2.3049 O.2       2 UNK        -0.5286 
     32 CA         24.2171    1.0009   -3.1702 C.3       2 UNK         0.0209 
     33 CB         23.7639    2.3740   -2.6487 C.3       2 UNK        -0.1931 
     34 N          25.2862    0.4937   -2.3065 N.am      2 UNK        -0.4546 
     35 C          25.9843   -0.6292   -2.5175 C.2       1 UNK         0.5154 
     36 O          25.7897   -1.3856   -3.4692 O.2       1 UNK        -0.5181 
     37 C          25.7124   -1.2835   -7.0131 C.2       5 UNK         0.5014 
     38 O          24.9937   -0.5168   -6.3636 O.2       5 UNK        -0.5248 
     39 N          26.4927   -0.8838   -8.0243 N.am      6 UNK        -0.4434 
     40 CA         26.7945    0.5167   -8.3352 C.3       6 UNK         0.0363 
     41 CB         27.1768    0.6296   -9.8200 C.3       6 UNK        -0.1936 
     42 C          27.9039    1.0907   -7.4255 C.2       6 UNK         0.5081 
     43 O          28.1694    2.2918   -7.4890 O.2       6 UNK        -0.5248 
     44 N          28.5291    0.2320   -6.6016 N.am      7 UNK        -0.4718 
     45 CA         29.5559    0.5305   -5.6000 C.3       7 UNK         0.0273 
     46 CB         28.9481    1.3329   -4.4276 C.3       7 UNK        -0.1935 
     47 C          30.7899    1.1801   -6.2461 C.2       7 UNK         0.5018 
     48 O          31.4107    0.5522   -7.1052 O.2       7 UNK        -0.5186 
     49 N          31.1180    2.4214   -5.8630 N.am      8 UNK        -0.4240 
     50 CA         32.2529    3.1930   -6.3810 C.3       8 UNK         0.0235 
     51 CB         32.2985    4.5624   -5.6852 C.3       8 UNK        -0.2000 
     52 C          32.2598    3.3662   -7.9110 C.2       8 UNK         0.4941 
     53 O          33.3392    3.4367   -8.4966 O.2       8 UNK        -0.5273 
     54 N          31.0756    3.3826   -8.5400 N.am      9 UNK        -0.4262 
     55 CA         30.9306    3.4124   -9.9968 C.3       9 UNK         0.0264 
     56 CB         29.5215    3.9041  -10.3604 C.3       9 UNK        -0.1955 
     57 C          31.2469    2.0644  -10.6760 C.2       9 UNK         0.5031 
     58 O          31.5205    2.0643  -11.8772 O.2       9 UNK        -0.5390 
     59 N          31.2203    0.9535   -9.9233 N.am      10 UNK        -0.4204 
     60 CA         31.6508   -0.3652  -10.3905 C.3       10 UNK         0.0237 
     61 CB         30.8193   -1.4752   -9.7221 C.3       10 UNK        -0.1985 
     62 C          33.1513   -0.5726  -10.1377 C.2       10 UNK         0.4970 
     63 O          33.8535   -1.0043  -11.0531 O.2       10 UNK        -0.4914 
     64 N          33.6179   -0.2689   -8.9168 N.am      11 UNK        -0.4285 
     65 CA         35.0354   -0.4064   -8.5333 C.3       11 UNK         0.1007 
     66 C          35.9823    0.6544   -9.1624 C.2       11 UNK         0.5703 
     67 N          35.5200    1.8505   -9.5022 N.am      11 UNK        -0.7361 
     68 O          37.1636    0.3785   -9.3581 O.2       11 UNK        -0.4986 
     69 C69        35.2359   -0.4907   -6.9977 C.3       12 UNK        -0.0947 
     70 S70        34.5170   -2.0169   -6.3045 S.3       12 UNK        -0.2240 
     71 C71        33.3813   -1.3577   -5.0422 C.3       12 UNK         0.0194 
     72 H72        24.2390   -1.0636    1.9752 H         1 UNK         0.0906 
     73 H73        25.4307   -2.3633    1.9015 H         1 UNK         0.0906 
     74 H74        25.7800   -0.8986    2.8216 H         1 UNK         0.0906 
     75 H75        26.4772   -2.4141   -0.0797 H         1 UNK         0.3140 
     76 H76        27.6242   -0.0349   -1.2929 H         1 UNK         0.1085 
     77 H77        27.6222   -2.9601   -2.1957 H         1 UNK         0.0836 
     78 H78        28.4674   -1.6660   -3.0132 H         1 UNK         0.0836 
     79 H79        29.6802   -4.5025   -1.6267 H         1 UNK         0.0731 
     80 H80        31.2333   -3.8971   -1.1101 H         1 UNK         0.0731 
     81 H81        32.3832   -2.0865   -2.6116 H         1 UNK         0.1312 
     82 H82        31.7657   -2.6900   -6.8149 H         1 UNK         0.1406 
     83 H83        29.2190   -4.6387   -3.9733 H         1 UNK         0.1631 
     84 H84        29.1857   -5.3355   -6.3129 H         1 UNK         0.0717 
     85 H85        30.3944   -4.7372   -7.4171 H         1 UNK         0.0717 
     86 H86        27.1172   -4.1759   -5.6457 H         1 UNK         0.0934 
     87 H87        27.5378   -2.5159   -5.3441 H         1 UNK         0.0934 
     88 H88        25.5456   -3.3540   -7.5489 H         1 UNK         0.0739 
     89 H89        24.5692   -2.2296   -5.0673 H         1 UNK         0.3093 
     90 H90        22.2727   -4.8856   -4.5852 H         1 UNK         0.0818 
     91 H91        22.9231   -4.6334   -2.1929 H         1 UNK         0.0819 
     92 H92        24.1385   -5.5620   -3.0563 H         1 UNK         0.0819 
     93 H93        24.4451   -3.8754   -2.6619 H         1 UNK         0.0819 
     94 H94        22.6908   -2.2863   -3.3667 H         1 UNK         0.3041 
     95 H95        20.8988   -0.4123   -5.7970 H         1 UNK         0.0784 
     96 H96        19.1445   -1.2105   -4.2683 H         1 UNK         0.0793 
     97 H97        20.2175   -1.0830   -2.8864 H         1 UNK         0.0793 
     98 H98        19.7121    0.3687   -3.7500 H         1 UNK         0.0793 
     99 H99        22.6908    0.6533   -5.1478 H         1 UNK         0.3024 
    100 H100       24.6388    1.1224   -4.1709 H         1 UNK         0.1171 
    101 H101       24.5900    3.0853   -2.6326 H         1 UNK         0.0786 
    102 H102       22.9851    2.7987   -3.2836 H         1 UNK         0.0786 
    103 H103       23.3595    2.3055   -1.6377 H         1 UNK         0.0786 
    104 H104       25.4428    0.9792   -1.4300 H         1 UNK         0.2977 
    105 H105       27.0503   -1.5826   -8.4986 H         1 UNK         0.3127 
    106 H106       25.8952    1.1146   -8.1719 H         1 UNK         0.0770 
    107 H107       28.1695    0.2281  -10.0196 H         1 UNK         0.0814 
    108 H108       27.1752    1.6711  -10.1386 H         1 UNK         0.0814 
    109 H109       26.4653    0.1051  -10.4580 H         1 UNK         0.0814 
    110 H110       28.2836   -0.7437   -6.6836 H         1 UNK         0.2983 
    111 H111       29.8922   -0.4292   -5.2045 H         1 UNK         0.0947 
    112 H112       29.6763    1.4811   -3.6289 H         1 UNK         0.0806 
    113 H113       28.1050    0.7986   -3.9927 H         1 UNK         0.0806 
    114 H114       28.5824    2.3122   -4.7385 H         1 UNK         0.0806 
    115 H115       30.5377    2.8754   -5.1728 H         1 UNK         0.3000 
    116 H116       33.1605    2.6453   -6.1182 H         1 UNK         0.0850 
    117 H117       33.1487    5.1497   -6.0353 H         1 UNK         0.0810 
    118 H118       32.4040    4.4570   -4.6053 H         1 UNK         0.0810 
    119 H119       31.3974    5.1451   -5.8810 H         1 UNK         0.0810 
    120 H120       30.2263    3.2867   -7.9953 H         1 UNK         0.3040 
    121 H121       31.6434    4.1385  -10.3944 H         1 UNK         0.0766 
    122 H122       28.7507    3.2728   -9.9239 H         1 UNK         0.0812 
    123 H123       29.3713    3.9082  -11.4409 H         1 UNK         0.0812 
    124 H124       29.3560    4.9220  -10.0072 H         1 UNK         0.0812 
    125 H125       31.0521    1.0358   -8.9248 H         1 UNK         0.3205 
    126 H126       31.4851   -0.4420  -11.4674 H         1 UNK         0.0754 
    127 H127       31.1839   -2.4622  -10.0097 H         1 UNK         0.0769 
    128 H128       29.7744   -1.4249  -10.0230 H         1 UNK         0.0769 
    129 H129       30.8545   -1.4239   -8.6349 H         1 UNK         0.0769 
    130 H130       32.9733    0.0538   -8.2026 H         1 UNK         0.2981 
    131 H131       35.3760   -1.3611   -8.9402 H         1 UNK         0.0541 
    132 H132       36.1540    2.5142   -9.9163 H         1 UNK         0.3459 
    133 H133       34.5811    2.1489   -9.2601 H         1 UNK         0.3459 
    134 H134       34.8183    0.3914   -6.5098 H         1 UNK         0.0612 
    135 H135       36.2982   -0.5018   -6.7461 H         1 UNK         0.0612 
    136 H136       32.9844   -0.3979   -5.3607 H         1 UNK         0.0624 
    137 H137       33.9583   -1.1620   -4.1373 H         1 UNK         0.0624 
@<TRIPOS>BOND
     1    1    2 1    
     2    1   72 1    
     3    1   73 1    
     4    1   74 1    
     5    2    3 2    
     6    2    4 am   BACKBONE|DICT|INTERRES
     7    4    5 1    
     8    4   75 1    
     9    5    6 1    
    10    5   35 1    
    11    5   76 1    
    12    6    7 1    
    13    6   77 1    
    14    6   78 1    
    15    7    8 1    
    16    8    9 1    
    17    8   79 1    
    18    8   80 1    
    19    9   10 ar   
    20    9   14 ar   
    21   10   11 ar   
    22   10   81 1    
    23   11   12 ar   
    24   11   71 1    
    25   12   13 ar   
    26   12   82 1    
    27   13   14 ar   
    28   13   15 1    
    29   14   83 1    
    30   15   16 1    
    31   15   84 1    
    32   15   85 1    
    33   16   17 1    
    34   17   18 1    
    35   17   86 1    
    36   17   87 1    
    37   18   19 1    
    38   18   37 1    
    39   18   88 1    
    40   19   20 am   BACKBONE|DICT|INTERRES
    41   19   89 1    
    42   20   21 2    
    43   20   22 1    
    44   22   23 1    
    45   22   24 1    
    46   22   90 1    
    47   23   91 1    
    48   23   92 1    
    49   23   93 1    
    50   24   25 am   BACKBONE|DICT|INTERRES
    51   24   94 1    
    52   25   26 2    
    53   25   27 1    
    54   27   28 1    
    55   27   29 1    
    56   27   95 1    
    57   28   96 1    
    58   28   97 1    
    59   28   98 1    
    60   29   30 am   BACKBONE|DICT|INTERRES
    61   29   99 1    
    62   30   31 2    
    63   30   32 1    
    64   32   33 1    
    65   32   34 1    
    66   32  100 1    
    67   33  101 1    
    68   33  102 1    
    69   33  103 1    
    70   34   35 am   BACKBONE|DICT|INTERRES
    71   34  104 1    
    72   35   36 2    
    73   37   38 2    
    74   37   39 am   BACKBONE|DICT|INTERRES
    75   39   40 1    
    76   39  105 1    
    77   40   41 1    
    78   40   42 1    
    79   40  106 1    
    80   41  107 1    
    81   41  108 1    
    82   41  109 1    
    83   42   43 2    
    84   42   44 am   BACKBONE|DICT|INTERRES
    85   44   45 1    
    86   44  110 1    
    87   45   46 1    
    88   45   47 1    
    89   45  111 1    
    90   46  112 1    
    91   46  113 1    
    92   46  114 1    
    93   47   48 2    
    94   47   49 am   BACKBONE|DICT|INTERRES
    95   49   50 1    
    96   49  115 1    
    97   50   51 1    
    98   50   52 1    
    99   50  116 1    
   100   51  117 1    
   101   51  118 1    
   102   51  119 1    
   103   52   53 2    
   104   52   54 am   BACKBONE|DICT|INTERRES
   105   54   55 1    
   106   54  120 1    
   107   55   56 1    
   108   55   57 1    
   109   55  121 1    
   110   56  122 1    
   111   56  123 1    
   112   56  124 1    
   113   57   58 2    
   114   57   59 am   BACKBONE|DICT|INTERRES
   115   59   60 1    
   116   59  125 1    
   117   60   61 1    
   118   60   62 1    
   119   60  126 1    
   120   61  127 1    
   121   61  128 1    
   122   61  129 1    
   123   62   63 2    
   124   62   64 am   BACKBONE|DICT|INTERRES
   125   64   65 1    
   126   64  130 1    
   127   65   66 1    
   128   65   69 1    
   129   65  131 1    
   130   66   67 am   BACKBONE|DICT|INTERRES
   131   66   68 2    
   132   67  132 1    
   133   67  133 1    
   134   69   70 1    
   135   69  134 1    
   136   69  135 1    
   137   70   71 1    
   138   71  136 1    
   139   71  137 1    
@<TRIPOS>SUBSTRUCTURE
     1 UNK         1 GROUP             0       ****    0 ROOT    
