@<TRIPOS>MOLECULE
3R137
137   139    1
SMALL
USER_CHARGES


@<TRIPOS>ATOM
      1 CA         30.1768    0.3581   -2.5635 C.3       0 UNK        -0.2020 
      2 C          29.5948   -0.7284   -1.6701 C.2       0 UNK         0.4855 
      3 O          29.2595   -0.4565   -0.5175 O.2       0 UNK        -0.5197 
      4 N          29.4570   -1.9491   -2.2058 N.am      1 UNK        -0.4892 
      5 CA         28.8384   -3.1225   -1.5709 C.3       1 UNK         0.0835 
      6 C6         29.7238   -3.7676   -0.4670 C.3       12 UNK        -0.0855 
      7 S7         29.5619   -5.5910   -0.4645 S.3       12 UNK        -0.2931 
      8 C8         31.0099   -6.1362   -1.4376 C.3       12 UNK         0.0378 
      9 C9         31.1352   -5.3981   -2.7647 C.ar      12 UNK        -0.0802 
     10 C10        32.2048   -4.5247   -2.9771 C.ar      12 UNK        -0.0944 
     11 C11        32.2948   -3.7857   -4.1586 C.ar      12 UNK        -0.0787 
     12 C12        31.2986   -3.9154   -5.1319 C.ar      12 UNK        -0.0862 
     13 C13        30.2265   -4.7930   -4.9348 C.ar      12 UNK        -0.0733 
     14 C14        30.1676   -5.5546   -3.7627 C.ar      12 UNK        -0.0832 
     15 C15        29.1214   -4.9159   -5.9759 C.3       12 UNK         0.0240 
     16 S16        27.5926   -4.0743   -5.4434 S.3       12 UNK        -0.2522 
     17 C17        28.0183   -2.3178   -5.6839 C.3       12 UNK        -0.0967 
     18 CA         27.1826   -1.6407   -6.7990 C.3       5 UNK         0.0660 
     19 N          25.7359   -1.7014   -6.5655 N.am      5 UNK        -0.4015 
     20 C          24.8043   -1.3463   -7.4638 C.2       4 UNK         0.4946 
     21 O          25.0613   -0.9697   -8.6070 O.2       4 UNK        -0.5353 
     22 CA         23.3395   -1.3735   -6.9957 C.3       4 UNK         0.0277 
     23 CB         22.7877   -2.8081   -7.0175 C.3       4 UNK        -0.1981 
     24 N          23.1604   -0.7942   -5.6622 N.am      4 UNK        -0.4209 
     25 C          23.3968    0.4895   -5.3517 C.2       3 UNK         0.4942 
     26 O          23.7335    1.3420   -6.1713 O.2       3 UNK        -0.5208 
     27 CA         23.2939    0.8780   -3.8655 C.3       3 UNK         0.0250 
     28 CB         21.8532    1.2796   -3.5122 C.3       3 UNK        -0.1990 
     29 N          23.7535   -0.1709   -2.9471 N.am      3 UNK        -0.4232 
     30 C          24.9745   -0.7224   -2.9666 C.2       2 UNK         0.4993 
     31 O          25.8620   -0.4008   -3.7659 O.2       2 UNK        -0.5286 
     32 CA         25.2272   -1.8597   -1.9704 C.3       2 UNK         0.0209 
     33 CB         24.3601   -3.0921   -2.2989 C.3       2 UNK        -0.1931 
     34 N          26.6365   -2.2119   -2.0622 N.am      2 UNK        -0.4546 
     35 C          27.3634   -2.8894   -1.1703 C.2       1 UNK         0.5154 
     36 O          26.9140   -3.3109   -0.1025 O.2       1 UNK        -0.5181 
     37 C          27.6404   -0.1853   -6.9867 C.2       5 UNK         0.5014 
     38 O          28.3703    0.0984   -7.9382 O.2       5 UNK        -0.5248 
     39 N          27.1870    0.7054   -6.0908 N.am      6 UNK        -0.4434 
     40 CA         27.4672    2.1433   -6.1116 C.3       6 UNK         0.0363 
     41 CB         26.8570    2.8075   -4.8684 C.3       6 UNK        -0.1936 
     42 C          26.9896    2.8378   -7.3977 C.2       6 UNK         0.5081 
     43 O          27.7247    3.6580   -7.9471 O.2       6 UNK        -0.5248 
     44 N          25.7879    2.4774   -7.8686 N.am      7 UNK        -0.4718 
     45 CA         25.2245    2.9414   -9.1373 C.3       7 UNK         0.0273 
     46 CB         23.7366    2.5631   -9.2095 C.3       7 UNK        -0.1935 
     47 C          25.9788    2.3977  -10.3620 C.2       7 UNK         0.5018 
     48 O          26.1484    3.1352  -11.3339 O.2       7 UNK        -0.5186 
     49 N          26.4064    1.1278  -10.3018 N.am      8 UNK        -0.4240 
     50 CA         27.1449    0.4548  -11.3706 C.3       8 UNK         0.0235 
     51 CB         27.1711   -1.0627  -11.1220 C.3       8 UNK        -0.2000 
     52 C          28.5674    1.0042  -11.5597 C.2       8 UNK         0.4941 
     53 O          28.9270    1.3479  -12.6872 O.2       8 UNK        -0.5273 
     54 N          29.3522    1.0627  -10.4742 N.am      9 UNK        -0.4262 
     55 CA         30.7658    1.4647  -10.5146 C.3       9 UNK         0.0264 
     56 CB         31.6157    0.3455  -11.1548 C.3       9 UNK        -0.1955 
     57 C          31.3703    1.8491   -9.1532 C.2       9 UNK         0.5031 
     58 O          32.4239    2.4890   -9.1469 O.2       9 UNK        -0.5390 
     59 N          30.7484    1.4368   -8.0387 N.am      10 UNK        -0.4204 
     60 CA         31.2803    1.4742   -6.6716 C.3       10 UNK         0.0237 
     61 CB         31.4863    2.9256   -6.1772 C.3       10 UNK        -0.1985 
     62 C          32.5145    0.5610   -6.5306 C.2       10 UNK         0.4970 
     63 O          32.5535   -0.4936   -7.1694 O.2       10 UNK        -0.4914 
     64 N          33.4702    0.9524   -5.6810 N.am      11 UNK        -0.4285 
     65 CA         34.6988    0.1950   -5.3856 C.3       11 UNK         0.1007 
     66 C          35.9965    0.9827   -5.7271 C.2       11 UNK         0.5703 
     67 N          35.9242    2.1139   -6.4199 N.am      11 UNK        -0.7361 
     68 O          37.0935    0.5550   -5.3751 O.2       11 UNK        -0.4986 
     69 C69        34.7112   -0.3559   -3.9309 C.3       12 UNK        -0.0947 
     70 S70        33.2062   -1.2816   -3.4752 S.3       12 UNK        -0.2240 
     71 C71        33.4662   -2.8410   -4.3691 C.3       12 UNK         0.0194 
     72 H72        29.4842    1.1966   -2.6342 H         1 UNK         0.0906 
     73 H73        31.1148    0.7241   -2.1467 H         1 UNK         0.0906 
     74 H74        30.3715   -0.0033   -3.5730 H         1 UNK         0.0906 
     75 H75        29.8129   -2.1152   -3.1368 H         1 UNK         0.3140 
     76 H76        28.7561   -3.8356   -2.3883 H         1 UNK         0.1085 
     77 H77        30.7739   -3.5164   -0.6232 H         1 UNK         0.0836 
     78 H78        29.4793   -3.3746    0.5214 H         1 UNK         0.0836 
     79 H79        31.9085   -6.0012   -0.8334 H         1 UNK         0.0731 
     80 H80        30.9279   -7.2073   -1.6275 H         1 UNK         0.0731 
     81 H81        32.9608   -4.4001   -2.2136 H         1 UNK         0.1312 
     82 H82        31.3586   -3.3291   -6.0393 H         1 UNK         0.1406 
     83 H83        29.3357   -6.2273   -3.6008 H         1 UNK         0.1631 
     84 H84        28.9006   -5.9714   -6.1414 H         1 UNK         0.0717 
     85 H85        29.4428   -4.5180   -6.9398 H         1 UNK         0.0717 
     86 H86        27.8812   -1.8054   -4.7323 H         1 UNK         0.0934 
     87 H87        29.0819   -2.2348   -5.9137 H         1 UNK         0.0934 
     88 H88        27.3829   -2.1670   -7.7348 H         1 UNK         0.0739 
     89 H89        25.4446   -1.9629   -5.6358 H         1 UNK         0.3093 
     90 H90        22.7585   -0.7734   -7.6996 H         1 UNK         0.0818 
     91 H91        21.7252   -2.8280   -6.7742 H         1 UNK         0.0819 
     92 H92        22.8991   -3.2522   -8.0078 H         1 UNK         0.0819 
     93 H93        23.3069   -3.4560   -6.3100 H         1 UNK         0.0819 
     94 H94        22.8745   -1.4196   -4.9236 H         1 UNK         0.3041 
     95 H95        23.9353    1.7473   -3.7106 H         1 UNK         0.0784 
     96 H96        21.4975    2.0733   -4.1711 H         1 UNK         0.0793 
     97 H97        21.1624    0.4412   -3.6099 H         1 UNK         0.0793 
     98 H98        21.7844    1.6554   -2.4911 H         1 UNK         0.0793 
     99 H99        23.0849   -0.4927   -2.2615 H         1 UNK         0.3024 
    100 H100       25.0100   -1.4981   -0.9628 H         1 UNK         0.1171 
    101 H101       23.2961   -2.8626   -2.2328 H         1 UNK         0.0786 
    102 H102       24.5505   -3.9086   -1.6022 H         1 UNK         0.0786 
    103 H103       24.5551   -3.4647   -3.3055 H         1 UNK         0.0786 
    104 H104       27.0942   -1.8143   -2.8723 H         1 UNK         0.2977 
    105 H105       26.6049    0.3681   -5.3264 H         1 UNK         0.3127 
    106 H106       28.5479    2.2671   -6.0564 H         1 UNK         0.0770 
    107 H107       25.7692    2.7451   -4.8727 H         1 UNK         0.0814 
    108 H108       27.1218    3.8646   -4.8233 H         1 UNK         0.0814 
    109 H109       27.2164    2.3420   -3.9503 H         1 UNK         0.0814 
    110 H110       25.2082    1.8526   -7.3133 H         1 UNK         0.2983 
    111 H111       25.3007    4.0308   -9.1605 H         1 UNK         0.0947 
    112 H112       23.2901    2.9043  -10.1444 H         1 UNK         0.0806 
    113 H113       23.1727    3.0187   -8.3953 H         1 UNK         0.0806 
    114 H114       23.5922    1.4834   -9.1514 H         1 UNK         0.0806 
    115 H115       26.1725    0.5708   -9.4864 H         1 UNK         0.3000 
    116 H116       26.6027    0.6258  -12.3034 H         1 UNK         0.0850 
    117 H117       27.7208   -1.5788  -11.9103 H         1 UNK         0.0810 
    118 H118       26.1629   -1.4772  -11.1067 H         1 UNK         0.0810 
    119 H119       27.6475   -1.3126  -10.1740 H         1 UNK         0.0810 
    120 H120       28.9610    0.7699   -9.5826 H         1 UNK         0.3040 
    121 H121       30.8424    2.3572  -11.1394 H         1 UNK         0.0766 
    122 H122       32.6727    0.6150  -11.1742 H         1 UNK         0.0812 
    123 H123       31.3212    0.1499  -12.1856 H         1 UNK         0.0812 
    124 H124       31.5285   -0.5881  -10.5976 H         1 UNK         0.0812 
    125 H125       29.8928    0.8914   -8.1258 H         1 UNK         0.3205 
    126 H126       30.5151    1.0182   -6.0432 H         1 UNK         0.0754 
    127 H127       31.6492    2.9587   -5.0994 H         1 UNK         0.0769 
    128 H128       30.6086    3.5387   -6.3826 H         1 UNK         0.0769 
    129 H129       32.3385    3.4072   -6.6579 H         1 UNK         0.0769 
    130 H130       33.3684    1.8313   -5.1953 H         1 UNK         0.2981 
    131 H131       34.7521   -0.6685   -6.0494 H         1 UNK         0.0541 
    132 H132       35.0396    2.4533   -6.7623 H         1 UNK         0.3459 
    133 H133       36.7735    2.6104   -6.6391 H         1 UNK         0.3459 
    134 H134       35.5727   -1.0070   -3.7720 H         1 UNK         0.0612 
    135 H135       34.8170    0.4661   -3.2210 H         1 UNK         0.0612 
    136 H136       33.5971   -2.6362   -5.4324 H         1 UNK         0.0624 
    137 H137       34.3891   -3.3095   -4.0241 H         1 UNK         0.0624 
@<TRIPOS>BOND
     1    1    2 1    
     2    1   72 1    
     3    1   73 1    
     4    1   74 1    
     5    2    3 2    
     6    2    4 am   BACKBONE|DICT|INTERRES
     7    4    5 1    
     8    4   75 1    
     9    5    6 1    
    10    5   35 1    
    11    5   76 1    
    12    6    7 1    
    13    6   77 1    
    14    6   78 1    
    15    7    8 1    
    16    8    9 1    
    17    8   79 1    
    18    8   80 1    
    19    9   10 ar   
    20    9   14 ar   
    21   10   11 ar   
    22   10   81 1    
    23   11   12 ar   
    24   11   71 1    
    25   12   13 ar   
    26   12   82 1    
    27   13   14 ar   
    28   13   15 1    
    29   14   83 1    
    30   15   16 1    
    31   15   84 1    
    32   15   85 1    
    33   16   17 1    
    34   17   18 1    
    35   17   86 1    
    36   17   87 1    
    37   18   19 1    
    38   18   37 1    
    39   18   88 1    
    40   19   20 am   BACKBONE|DICT|INTERRES
    41   19   89 1    
    42   20   21 2    
    43   20   22 1    
    44   22   23 1    
    45   22   24 1    
    46   22   90 1    
    47   23   91 1    
    48   23   92 1    
    49   23   93 1    
    50   24   25 am   BACKBONE|DICT|INTERRES
    51   24   94 1    
    52   25   26 2    
    53   25   27 1    
    54   27   28 1    
    55   27   29 1    
    56   27   95 1    
    57   28   96 1    
    58   28   97 1    
    59   28   98 1    
    60   29   30 am   BACKBONE|DICT|INTERRES
    61   29   99 1    
    62   30   31 2    
    63   30   32 1    
    64   32   33 1    
    65   32   34 1    
    66   32  100 1    
    67   33  101 1    
    68   33  102 1    
    69   33  103 1    
    70   34   35 am   BACKBONE|DICT|INTERRES
    71   34  104 1    
    72   35   36 2    
    73   37   38 2    
    74   37   39 am   BACKBONE|DICT|INTERRES
    75   39   40 1    
    76   39  105 1    
    77   40   41 1    
    78   40   42 1    
    79   40  106 1    
    80   41  107 1    
    81   41  108 1    
    82   41  109 1    
    83   42   43 2    
    84   42   44 am   BACKBONE|DICT|INTERRES
    85   44   45 1    
    86   44  110 1    
    87   45   46 1    
    88   45   47 1    
    89   45  111 1    
    90   46  112 1    
    91   46  113 1    
    92   46  114 1    
    93   47   48 2    
    94   47   49 am   BACKBONE|DICT|INTERRES
    95   49   50 1    
    96   49  115 1    
    97   50   51 1    
    98   50   52 1    
    99   50  116 1    
   100   51  117 1    
   101   51  118 1    
   102   51  119 1    
   103   52   53 2    
   104   52   54 am   BACKBONE|DICT|INTERRES
   105   54   55 1    
   106   54  120 1    
   107   55   56 1    
   108   55   57 1    
   109   55  121 1    
   110   56  122 1    
   111   56  123 1    
   112   56  124 1    
   113   57   58 2    
   114   57   59 am   BACKBONE|DICT|INTERRES
   115   59   60 1    
   116   59  125 1    
   117   60   61 1    
   118   60   62 1    
   119   60  126 1    
   120   61  127 1    
   121   61  128 1    
   122   61  129 1    
   123   62   63 2    
   124   62   64 am   BACKBONE|DICT|INTERRES
   125   64   65 1    
   126   64  130 1    
   127   65   66 1    
   128   65   69 1    
   129   65  131 1    
   130   66   67 am   BACKBONE|DICT|INTERRES
   131   66   68 2    
   132   67  132 1    
   133   67  133 1    
   134   69   70 1    
   135   69  134 1    
   136   69  135 1    
   137   70   71 1    
   138   71  136 1    
   139   71  137 1    
@<TRIPOS>SUBSTRUCTURE
     1 UNK         1 GROUP             0       ****    0 ROOT    
