@<TRIPOS>MOLECULE
3R137
137   139    1
SMALL
USER_CHARGES


@<TRIPOS>ATOM
      1 CA         27.0749   -0.4631    2.6625 C.3       0 UNK        -0.2020 
      2 C          27.1731   -0.3410    1.1497 C.2       0 UNK         0.4855 
      3 O          26.4008    0.4011    0.5423 O.2       0 UNK        -0.5197 
      4 N          28.1077   -1.0750    0.5306 N.am      1 UNK        -0.4892 
      5 CA         28.3663   -1.0699   -0.9165 C.3       1 UNK         0.0835 
      6 C6         29.7698   -1.6255   -1.2635 C.3       12 UNK        -0.0855 
      7 S7         30.1887   -3.2498   -0.5284 S.3       12 UNK        -0.2931 
      8 C8         29.6489   -4.4623   -1.7918 C.3       12 UNK         0.0378 
      9 C9         30.1424   -4.2164   -3.2196 C.ar      12 UNK        -0.0802 
     10 C10        31.3493   -3.5576   -3.4930 C.ar      12 UNK        -0.0944 
     11 C11        31.7283   -3.2873   -4.8100 C.ar      12 UNK        -0.0787 
     12 C12        30.9152   -3.7203   -5.8580 C.ar      12 UNK        -0.0862 
     13 C13        29.7172   -4.3945   -5.6131 C.ar      12 UNK        -0.0733 
     14 C14        29.3505   -4.6570   -4.2872 C.ar      12 UNK        -0.0832 
     15 C15        28.8700   -4.8190   -6.8155 C.3       12 UNK         0.0240 
     16 S16        27.0790   -5.0502   -6.5250 S.3       12 UNK        -0.2522 
     17 C17        26.5343   -3.4787   -5.7763 C.3       12 UNK        -0.0967 
     18 CA         26.3590   -2.3015   -6.7676 C.3       5 UNK         0.0660 
     19 N          25.1862   -1.4794   -6.4375 N.am      5 UNK        -0.4015 
     20 C          24.7628   -0.4238   -7.1512 C.2       4 UNK         0.4946 
     21 O          25.3115   -0.0361   -8.1823 O.2       4 UNK        -0.5353 
     22 CA         23.5318    0.3517   -6.6507 C.3       4 UNK         0.0277 
     23 CB         22.3022    0.0099   -7.5074 C.3       4 UNK        -0.1981 
     24 N          23.2068    0.1407   -5.2393 N.am      4 UNK        -0.4209 
     25 C          23.9599    0.5259   -4.2003 C.2       3 UNK         0.4942 
     26 O          25.0492    1.0894   -4.3154 O.2       3 UNK        -0.5208 
     27 CA         23.4079    0.2275   -2.7926 C.3       3 UNK         0.0250 
     28 CB         21.8828   -0.0256   -2.7541 C.3       3 UNK        -0.1990 
     29 N          24.1234   -0.8741   -2.1424 N.am      3 UNK        -0.4232 
     30 C          24.2990   -2.1224   -2.6058 C.2       2 UNK         0.4993 
     31 O          23.8683   -2.5236   -3.6900 O.2       2 UNK        -0.5286 
     32 CA         25.1190   -3.0622   -1.6945 C.3       2 UNK         0.0209 
     33 CB         25.5039   -4.4009   -2.3563 C.3       2 UNK        -0.1931 
     34 N          26.3080   -2.4201   -1.1172 N.am      2 UNK        -0.4546 
     35 C          27.2596   -1.7296   -1.7682 C.2       1 UNK         0.5154 
     36 O          27.2791   -1.5756   -2.9900 O.2       1 UNK        -0.5181 
     37 C          27.6436   -1.4524   -6.8614 C.2       5 UNK         0.5014 
     38 O          28.3378   -1.5081   -7.8778 O.2       5 UNK        -0.5248 
     39 N          27.9001   -0.6377   -5.8265 N.am      6 UNK        -0.4434 
     40 CA         29.0432    0.2741   -5.7615 C.3       6 UNK         0.0363 
     41 CB         29.1423    0.8923   -4.3602 C.3       6 UNK        -0.1936 
     42 C          29.0304    1.3815   -6.8241 C.2       6 UNK         0.5081 
     43 O          30.1030    1.8166   -7.2453 O.2       6 UNK        -0.5248 
     44 N          27.8325    1.8123   -7.2409 N.am      7 UNK        -0.4718 
     45 CA         27.6399    2.7814   -8.3192 C.3       7 UNK         0.0273 
     46 CB         26.2278    3.3836   -8.2368 C.3       7 UNK        -0.1935 
     47 C          27.8948    2.1497   -9.6959 C.2       7 UNK         0.5018 
     48 O          28.5840    2.7554  -10.5160 O.2       7 UNK        -0.5186 
     49 N          27.3636    0.9371   -9.9117 N.am      8 UNK        -0.4240 
     50 CA         27.5381    0.1478  -11.1333 C.3       8 UNK         0.0235 
     51 CB         26.6027   -1.0719  -11.0966 C.3       8 UNK        -0.2000 
     52 C          28.9945   -0.2883  -11.3600 C.2       8 UNK         0.4941 
     53 O          29.4924   -0.1723  -12.4805 O.2       8 UNK        -0.5273 
     54 N          29.6558   -0.7605  -10.2943 N.am      9 UNK        -0.4262 
     55 CA         31.0703   -1.1452  -10.3042 C.3       9 UNK         0.0264 
     56 CB         31.3465   -2.0500   -9.0967 C.3       9 UNK        -0.1955 
     57 C          32.0336    0.0543  -10.2899 C.2       9 UNK         0.5031 
     58 O          33.2020   -0.1164  -10.6400 O.2       9 UNK        -0.5390 
     59 N          31.5391    1.2247   -9.8615 N.am      10 UNK        -0.4204 
     60 CA         32.2554    2.4909   -9.6742 C.3       10 UNK         0.0237 
     61 CB         32.7956    3.0314  -11.0157 C.3       10 UNK        -0.1985 
     62 C          33.3289    2.4426   -8.5664 C.2       10 UNK         0.4970 
     63 O          34.2520    3.2592   -8.5861 O.2       10 UNK        -0.4914 
     64 N          33.1834    1.5167   -7.6076 N.am      11 UNK        -0.4285 
     65 CA         34.0051    1.4489   -6.3889 C.3       11 UNK         0.1007 
     66 C          33.5636    2.4576   -5.2873 C.2       11 UNK         0.5703 
     67 N          32.3707    3.0404   -5.3623 N.am      11 UNK        -0.7361 
     68 O          34.3251    2.7277   -4.3615 O.2       11 UNK        -0.4986 
     69 C69        34.1419   -0.0030   -5.8510 C.3       12 UNK        -0.0947 
     70 S70        32.5667   -0.7266   -5.2917 S.3       12 UNK        -0.2240 
     71 C71        32.9857   -2.4855   -5.1113 C.3       12 UNK         0.0194 
     72 H72        27.2415    0.5079    3.1280 H         1 UNK         0.0906 
     73 H73        26.0827   -0.8117    2.9479 H         1 UNK         0.0906 
     74 H74        27.8087   -1.1617    3.0642 H         1 UNK         0.0906 
     75 H75        28.7104   -1.6837    1.0688 H         1 UNK         0.3140 
     76 H76        28.3612   -0.0226   -1.2283 H         1 UNK         0.1085 
     77 H77        29.9162   -1.6509   -2.3424 H         1 UNK         0.0836 
     78 H78        30.5192   -0.9195   -0.9023 H         1 UNK         0.0836 
     79 H79        29.9805   -5.4533   -1.4800 H         1 UNK         0.0731 
     80 H80        28.5585   -4.4891   -1.7794 H         1 UNK         0.0731 
     81 H81        31.9774   -3.2155   -2.6824 H         1 UNK         0.1312 
     82 H82        31.2147   -3.5174   -6.8739 H         1 UNK         0.1406 
     83 H83        28.4316   -5.1872   -4.0805 H         1 UNK         0.1631 
     84 H84        29.2726   -5.7578   -7.1975 H         1 UNK         0.0717 
     85 H85        28.9847   -4.0940   -7.6219 H         1 UNK         0.0717 
     86 H86        27.1841   -3.2132   -4.9441 H         1 UNK         0.0934 
     87 H87        25.5729   -3.7131   -5.3186 H         1 UNK         0.0934 
     88 H88        26.1669   -2.7089   -7.7625 H         1 UNK         0.0739 
     89 H89        24.6817   -1.7257   -5.5932 H         1 UNK         0.3093 
     90 H90        23.7521    1.4133   -6.7808 H         1 UNK         0.0818 
     91 H91        21.4437    0.6239   -7.2346 H         1 UNK         0.0819 
     92 H92        22.5014    0.1888   -8.5652 H         1 UNK         0.0819 
     93 H93        22.0154   -1.0373   -7.4030 H         1 UNK         0.0819 
     94 H94        22.3457   -0.3482   -5.0403 H         1 UNK         0.3041 
     95 H95        23.6068    1.1196   -2.1965 H         1 UNK         0.0784 
     96 H96        21.3341    0.7928   -3.2226 H         1 UNK         0.0793 
     97 H97        21.5996   -0.9503   -3.2581 H         1 UNK         0.0793 
     98 H98        21.5282   -0.0958   -1.7256 H         1 UNK         0.0793 
     99 H99        24.5815   -0.6347   -1.2728 H         1 UNK         0.3024 
    100 H100       24.4552   -3.2976   -0.8608 H         1 UNK         0.1171 
    101 H101       25.8878   -5.1041   -1.6174 H         1 UNK         0.0786 
    102 H102       26.2743   -4.2718   -3.1122 H         1 UNK         0.0786 
    103 H103       24.6453   -4.8753   -2.8333 H         1 UNK         0.0786 
    104 H104       26.3914   -2.4667   -0.1113 H         1 UNK         0.2977 
    105 H105       27.3119   -0.6891   -5.0015 H         1 UNK         0.3127 
    106 H106       29.9308   -0.3287   -5.9430 H         1 UNK         0.0770 
    107 H107       28.2305    1.4255   -4.0877 H         1 UNK         0.0814 
    108 H108       29.9710    1.5991   -4.2997 H         1 UNK         0.0814 
    109 H109       29.3237    0.1277   -3.6100 H         1 UNK         0.0814 
    110 H110       27.0055    1.3794   -6.8544 H         1 UNK         0.2983 
    111 H111       28.3606    3.5918   -8.1858 H         1 UNK         0.0947 
    112 H112       26.0868    4.1457   -9.0044 H         1 UNK         0.0806 
    113 H113       26.0559    3.8607   -7.2718 H         1 UNK         0.0806 
    114 H114       25.4523    2.6314   -8.3817 H         1 UNK         0.0806 
    115 H115       26.7694    0.5305   -9.1908 H         1 UNK         0.3000 
    116 H116       27.2457    0.7761  -11.9773 H         1 UNK         0.0850 
    117 H117       26.7026   -1.6699  -12.0034 H         1 UNK         0.0810 
    118 H118       25.5587   -0.7670  -11.0211 H         1 UNK         0.0810 
    119 H119       26.8202   -1.7224  -10.2485 H         1 UNK         0.0810 
    120 H120       29.1497   -0.8909   -9.4181 H         1 UNK         0.3040 
    121 H121       31.2691   -1.7169  -11.2132 H         1 UNK         0.0766 
    122 H122       32.3867   -2.3785   -9.0782 H         1 UNK         0.0812 
    123 H123       31.1490   -1.5313   -8.1574 H         1 UNK         0.0812 
    124 H124       30.7227   -2.9431   -9.1284 H         1 UNK         0.0812 
    125 H125       30.5706    1.2406   -9.5698 H         1 UNK         0.3205 
    126 H126       31.5038    3.1984   -9.3206 H         1 UNK         0.0754 
    127 H127       33.1770    4.0471  -10.9042 H         1 UNK         0.0769 
    128 H128       32.0118    3.0633  -11.7727 H         1 UNK         0.0769 
    129 H129       33.6115    2.4195  -11.4014 H         1 UNK         0.0769 
    130 H130       32.3616    0.9301   -7.6230 H         1 UNK         0.2981 
    131 H131       35.0156    1.7561   -6.6650 H         1 UNK         0.0541 
    132 H132       31.7243    2.7896   -6.0988 H         1 UNK         0.3459 
    133 H133       32.0991    3.7006   -4.6520 H         1 UNK         0.3459 
    134 H134       34.8511   -0.0374   -5.0221 H         1 UNK         0.0612 
    135 H135       34.5598   -0.6418   -6.6307 H         1 UNK         0.0612 
    136 H136       33.4510   -2.8481   -6.0291 H         1 UNK         0.0624 
    137 H137       33.7208   -2.6059   -4.3142 H         1 UNK         0.0624 
@<TRIPOS>BOND
     1    1    2 1    
     2    1   72 1    
     3    1   73 1    
     4    1   74 1    
     5    2    3 2    
     6    2    4 am   BACKBONE|DICT|INTERRES
     7    4    5 1    
     8    4   75 1    
     9    5    6 1    
    10    5   35 1    
    11    5   76 1    
    12    6    7 1    
    13    6   77 1    
    14    6   78 1    
    15    7    8 1    
    16    8    9 1    
    17    8   79 1    
    18    8   80 1    
    19    9   10 ar   
    20    9   14 ar   
    21   10   11 ar   
    22   10   81 1    
    23   11   12 ar   
    24   11   71 1    
    25   12   13 ar   
    26   12   82 1    
    27   13   14 ar   
    28   13   15 1    
    29   14   83 1    
    30   15   16 1    
    31   15   84 1    
    32   15   85 1    
    33   16   17 1    
    34   17   18 1    
    35   17   86 1    
    36   17   87 1    
    37   18   19 1    
    38   18   37 1    
    39   18   88 1    
    40   19   20 am   BACKBONE|DICT|INTERRES
    41   19   89 1    
    42   20   21 2    
    43   20   22 1    
    44   22   23 1    
    45   22   24 1    
    46   22   90 1    
    47   23   91 1    
    48   23   92 1    
    49   23   93 1    
    50   24   25 am   BACKBONE|DICT|INTERRES
    51   24   94 1    
    52   25   26 2    
    53   25   27 1    
    54   27   28 1    
    55   27   29 1    
    56   27   95 1    
    57   28   96 1    
    58   28   97 1    
    59   28   98 1    
    60   29   30 am   BACKBONE|DICT|INTERRES
    61   29   99 1    
    62   30   31 2    
    63   30   32 1    
    64   32   33 1    
    65   32   34 1    
    66   32  100 1    
    67   33  101 1    
    68   33  102 1    
    69   33  103 1    
    70   34   35 am   BACKBONE|DICT|INTERRES
    71   34  104 1    
    72   35   36 2    
    73   37   38 2    
    74   37   39 am   BACKBONE|DICT|INTERRES
    75   39   40 1    
    76   39  105 1    
    77   40   41 1    
    78   40   42 1    
    79   40  106 1    
    80   41  107 1    
    81   41  108 1    
    82   41  109 1    
    83   42   43 2    
    84   42   44 am   BACKBONE|DICT|INTERRES
    85   44   45 1    
    86   44  110 1    
    87   45   46 1    
    88   45   47 1    
    89   45  111 1    
    90   46  112 1    
    91   46  113 1    
    92   46  114 1    
    93   47   48 2    
    94   47   49 am   BACKBONE|DICT|INTERRES
    95   49   50 1    
    96   49  115 1    
    97   50   51 1    
    98   50   52 1    
    99   50  116 1    
   100   51  117 1    
   101   51  118 1    
   102   51  119 1    
   103   52   53 2    
   104   52   54 am   BACKBONE|DICT|INTERRES
   105   54   55 1    
   106   54  120 1    
   107   55   56 1    
   108   55   57 1    
   109   55  121 1    
   110   56  122 1    
   111   56  123 1    
   112   56  124 1    
   113   57   58 2    
   114   57   59 am   BACKBONE|DICT|INTERRES
   115   59   60 1    
   116   59  125 1    
   117   60   61 1    
   118   60   62 1    
   119   60  126 1    
   120   61  127 1    
   121   61  128 1    
   122   61  129 1    
   123   62   63 2    
   124   62   64 am   BACKBONE|DICT|INTERRES
   125   64   65 1    
   126   64  130 1    
   127   65   66 1    
   128   65   69 1    
   129   65  131 1    
   130   66   67 am   BACKBONE|DICT|INTERRES
   131   66   68 2    
   132   67  132 1    
   133   67  133 1    
   134   69   70 1    
   135   69  134 1    
   136   69  135 1    
   137   70   71 1    
   138   71  136 1    
   139   71  137 1    
@<TRIPOS>SUBSTRUCTURE
     1 UNK         1 GROUP             0       ****    0 ROOT    
