@<TRIPOS>MOLECULE
3R137
137   139    1
SMALL
USER_CHARGES


@<TRIPOS>ATOM
      1 CA         31.5576   -1.0424   -1.4403 C.3       0 UNK        -0.2020 
      2 C          30.6120   -0.3318   -0.4826 C.2       0 UNK         0.4855 
      3 O          30.9868    0.6900    0.0887 O.2       0 UNK        -0.5197 
      4 N          29.3862   -0.8183   -0.2694 N.am      1 UNK        -0.4892 
      5 CA         28.7275   -1.9777   -0.8735 C.3       1 UNK         0.0835 
      6 C6         29.1392   -3.3066   -0.1838 C.3       12 UNK        -0.0855 
      7 S7         28.5796   -4.8083   -1.0658 S.3       12 UNK        -0.2931 
      8 C8         30.1031   -5.4333   -1.8421 C.3       12 UNK         0.0378 
      9 C9         30.4050   -4.7473   -3.1678 C.ar      12 UNK        -0.0802 
     10 C10        31.5281   -3.9255   -3.2987 C.ar      12 UNK        -0.0944 
     11 C11        31.8532   -3.3467   -4.5292 C.ar      12 UNK        -0.0787 
     12 C12        31.0389   -3.6126   -5.6355 C.ar      12 UNK        -0.0862 
     13 C13        29.9111   -4.4315   -5.5288 C.ar      12 UNK        -0.0733 
     14 C14        29.6008   -4.9968   -4.2854 C.ar      12 UNK        -0.0832 
     15 C15        29.1168   -4.7374   -6.8003 C.3       12 UNK         0.0240 
     16 S16        27.3772   -5.2439   -6.5693 S.3       12 UNK        -0.2522 
     17 C17        26.6146   -3.7566   -5.8460 C.3       12 UNK        -0.0967 
     18 CA         26.2445   -2.6749   -6.9007 C.3       5 UNK         0.0660 
     19 N          24.9712   -2.0263   -6.5898 N.am      5 UNK        -0.4015 
     20 C          24.2001   -1.3834   -7.4766 C.2       4 UNK         0.4946 
     21 O          24.4357   -1.3357   -8.6839 O.2       4 UNK        -0.5353 
     22 CA         22.9550   -0.6618   -6.9279 C.3       4 UNK         0.0277 
     23 CB         21.7179   -1.5677   -7.0385 C.3       4 UNK        -0.1981 
     24 N          23.0997   -0.2057   -5.5415 N.am      4 UNK        -0.4209 
     25 C          23.9476    0.7544   -5.1469 C.2       3 UNK         0.4942 
     26 O          24.7021    1.3591   -5.9070 O.2       3 UNK        -0.5208 
     27 CA         24.0087    1.0472   -3.6388 C.3       3 UNK         0.0250 
     28 CB         22.8305    1.9372   -3.2111 C.3       3 UNK        -0.1990 
     29 N          24.0677   -0.1449   -2.7812 N.am      3 UNK        -0.4232 
     30 C          24.9594   -1.1376   -2.9032 C.2       2 UNK         0.4993 
     31 O          25.7397   -1.2528   -3.8511 O.2       2 UNK        -0.5286 
     32 CA         25.0029   -2.1937   -1.7920 C.3       2 UNK         0.0209 
     33 CB         24.2842   -3.4780   -2.2340 C.3       2 UNK        -0.1931 
     34 N          26.4038   -2.4971   -1.4982 N.am      2 UNK        -0.4546 
     35 C          27.2116   -1.6883   -0.8035 C.2       1 UNK         0.5154 
     36 O          26.7981   -0.7247   -0.1480 O.2       1 UNK        -0.5181 
     37 C          27.3423   -1.6046   -7.0164 C.2       5 UNK         0.5014 
     38 O          28.0211   -1.5202   -8.0410 O.2       5 UNK        -0.5248 
     39 N          27.4780   -0.7968   -5.9560 N.am      6 UNK        -0.4434 
     40 CA         28.5121    0.2192   -5.7955 C.3       6 UNK         0.0363 
     41 CB         28.4370    0.8171   -4.3822 C.3       6 UNK        -0.1936 
     42 C          28.4634    1.3175   -6.8640 C.2       6 UNK         0.5081 
     43 O          29.5202    1.6962   -7.3637 O.2       6 UNK        -0.5248 
     44 N          27.2598    1.7804   -7.2316 N.am      7 UNK        -0.4718 
     45 CA         27.0611    2.7765   -8.2895 C.3       7 UNK         0.0273 
     46 CB         25.6127    3.2883   -8.2586 C.3       7 UNK        -0.1935 
     47 C          27.4124    2.2530   -9.6922 C.2       7 UNK         0.5018 
     48 O          27.8935    3.0301  -10.5171 O.2       7 UNK        -0.5186 
     49 N          27.1774    0.9560   -9.9371 N.am      8 UNK        -0.4240 
     50 CA         27.5140    0.2852  -11.1937 C.3       8 UNK         0.0235 
     51 CB         26.6979   -1.0110  -11.3262 C.3       8 UNK        -0.2000 
     52 C          29.0196    0.0007  -11.3025 C.2       8 UNK         0.4941 
     53 O          29.6088    0.2447  -12.3559 O.2       8 UNK        -0.5273 
     54 N          29.6133   -0.5022  -10.2121 N.am      9 UNK        -0.4262 
     55 CA         31.0356   -0.8399  -10.1204 C.3       9 UNK         0.0264 
     56 CB         31.2227   -1.8307   -8.9644 C.3       9 UNK        -0.1955 
     57 C          31.9616    0.3768   -9.9344 C.2       9 UNK         0.5031 
     58 O          33.1626    0.2469  -10.1754 O.2       9 UNK        -0.5390 
     59 N          31.4005    1.5130   -9.4951 N.am      10 UNK        -0.4204 
     60 CA         32.0743    2.7516   -9.0861 C.3       10 UNK         0.0237 
     61 CB         32.8557    3.3919  -10.2541 C.3       10 UNK        -0.1985 
     62 C          32.9168    2.5579   -7.8086 C.2       10 UNK         0.4970 
     63 O          34.0312    3.0773   -7.7176 O.2       10 UNK        -0.4914 
     64 N          32.3607    1.8135   -6.8451 N.am      11 UNK        -0.4285 
     65 CA         32.9424    1.5881   -5.5146 C.3       11 UNK         0.1007 
     66 C          32.6220    2.7649   -4.5563 C.2       11 UNK         0.5703 
     67 N          33.5173    3.0657   -3.6253 N.am      11 UNK        -0.7361 
     68 O          31.5601    3.3817   -4.6223 O.2       11 UNK        -0.4986 
     69 C69        32.4892    0.2359   -4.9031 C.3       12 UNK        -0.0947 
     70 S70        33.0725   -1.1798   -5.8905 S.3       12 UNK        -0.2240 
     71 C71        33.1411   -2.5314   -4.6618 C.3       12 UNK         0.0194 
     72 H72        31.0929   -1.2027   -2.4121 H         1 UNK         0.0906 
     73 H73        32.4552   -0.4450   -1.5971 H         1 UNK         0.0906 
     74 H74        31.8696   -1.9977   -1.0236 H         1 UNK         0.0906 
     75 H75        28.7443   -0.2909    0.3131 H         1 UNK         0.3140 
     76 H76        28.9906   -2.0233   -1.9321 H         1 UNK         0.1085 
     77 H77        28.7471   -3.3409    0.8345 H         1 UNK         0.0836 
     78 H78        30.2222   -3.3560   -0.0745 H         1 UNK         0.0836 
     79 H79        30.9396   -5.3426   -1.1475 H         1 UNK         0.0731 
     80 H80        29.9824   -6.5022   -2.0239 H         1 UNK         0.0731 
     81 H81        32.1760   -3.7692   -2.4481 H         1 UNK         0.1312 
     82 H82        31.3067   -3.2126   -6.6009 H         1 UNK         0.1406 
     83 H83        28.7511   -5.6577   -4.1844 H         1 UNK         0.1631 
     84 H84        29.6304   -5.5420   -7.3278 H         1 UNK         0.0717 
     85 H85        29.1402   -3.8790   -7.4711 H         1 UNK         0.0717 
     86 H86        25.7099   -4.1115   -5.3509 H         1 UNK         0.0934 
     87 H87        27.2403   -3.3708   -5.0382 H         1 UNK         0.0934 
     88 H88        26.1408   -3.1529   -7.8776 H         1 UNK         0.0739 
     89 H89        24.7523   -1.9334   -5.6063 H         1 UNK         0.3093 
     90 H90        22.7906    0.2190   -7.5526 H         1 UNK         0.0818 
     91 H91        20.8116   -1.0412   -6.7389 H         1 UNK         0.0819 
     92 H92        21.5705   -1.9018   -8.0667 H         1 UNK         0.0819 
     93 H93        21.8114   -2.4591   -6.4169 H         1 UNK         0.0819 
     94 H94        22.5238   -0.6557   -4.8447 H         1 UNK         0.3041 
     95 H95        24.9304    1.6058   -3.4631 H         1 UNK         0.0784 
     96 H96        22.7744    2.8346   -3.8292 H         1 UNK         0.0793 
     97 H97        21.8754    1.4185   -3.3020 H         1 UNK         0.0793 
     98 H98        22.9366    2.2667   -2.1773 H         1 UNK         0.0793 
     99 H99        23.4538   -0.1449   -1.9790 H         1 UNK         0.3024 
    100 H100       24.5199   -1.8038   -0.8929 H         1 UNK         0.1171 
    101 H101       23.2345   -3.2824   -2.4570 H         1 UNK         0.0786 
    102 H102       24.3126   -4.2352   -1.4502 H         1 UNK         0.0786 
    103 H103       24.7343   -3.9084   -3.1288 H         1 UNK         0.0786 
    104 H104       26.8149   -3.2771   -1.9927 H         1 UNK         0.2977 
    105 H105       26.8463   -0.9283   -5.1647 H         1 UNK         0.3127 
    106 H106       29.4696   -0.2929   -5.9028 H         1 UNK         0.0770 
    107 H107       27.4722    1.2914   -4.1983 H         1 UNK         0.0814 
    108 H108       29.2086    1.5746   -4.2360 H         1 UNK         0.0814 
    109 H109       28.5837    0.0522   -3.6197 H         1 UNK         0.0814 
    110 H110       26.4256    1.4486   -6.7517 H         1 UNK         0.2983 
    111 H111       27.7235    3.6199   -8.0815 H         1 UNK         0.0947 
    112 H112       25.4510    4.0530   -9.0196 H         1 UNK         0.0806 
    113 H113       25.3710    3.7351   -7.2940 H         1 UNK         0.0806 
    114 H114       24.8977    2.4855   -8.4438 H         1 UNK         0.0806 
    115 H115       26.8053    0.3803   -9.1938 H         1 UNK         0.3000 
    116 H116       27.2378    0.9418  -12.0219 H         1 UNK         0.0850 
    117 H117       26.9233   -1.5201  -12.2641 H         1 UNK         0.0810 
    118 H118       25.6271   -0.8063  -11.3173 H         1 UNK         0.0810 
    119 H119       26.9074   -1.7105  -10.5161 H         1 UNK         0.0810 
    120 H120       29.0372   -0.7297   -9.4029 H         1 UNK         0.3040 
    121 H121       31.3340   -1.3369  -11.0459 H         1 UNK         0.0766 
    122 H122       32.2703   -2.1129   -8.8506 H         1 UNK         0.0812 
    123 H123       30.6549   -2.7458   -9.1319 H         1 UNK         0.0812 
    124 H124       30.8922   -1.3971   -8.0197 H         1 UNK         0.0812 
    125 H125       30.4190    1.4713   -9.2443 H         1 UNK         0.3205 
    126 H126       31.2771    3.4449   -8.8132 H         1 UNK         0.0754 
    127 H127       33.2198    4.3829   -9.9805 H         1 UNK         0.0769 
    128 H128       32.2243    3.5106  -11.1346 H         1 UNK         0.0769 
    129 H129       33.7236    2.7973  -10.5401 H         1 UNK         0.0769 
    130 H130       31.3955    1.5250   -6.9702 H         1 UNK         0.2981 
    131 H131       34.0281    1.5474   -5.6258 H         1 UNK         0.0541 
    132 H132       34.3883    2.5630   -3.5550 H         1 UNK         0.3459 
    133 H133       33.3208    3.8181   -2.9841 H         1 UNK         0.3459 
    134 H134       31.4054    0.1865   -4.8063 H         1 UNK         0.0612 
    135 H135       32.8939    0.1340   -3.8958 H         1 UNK         0.0612 
    136 H136       33.9344   -3.2156   -4.9645 H         1 UNK         0.0624 
    137 H137       33.4437   -2.1277   -3.6948 H         1 UNK         0.0624 
@<TRIPOS>BOND
     1    1    2 1    
     2    1   72 1    
     3    1   73 1    
     4    1   74 1    
     5    2    3 2    
     6    2    4 am   BACKBONE|DICT|INTERRES
     7    4    5 1    
     8    4   75 1    
     9    5    6 1    
    10    5   35 1    
    11    5   76 1    
    12    6    7 1    
    13    6   77 1    
    14    6   78 1    
    15    7    8 1    
    16    8    9 1    
    17    8   79 1    
    18    8   80 1    
    19    9   10 ar   
    20    9   14 ar   
    21   10   11 ar   
    22   10   81 1    
    23   11   12 ar   
    24   11   71 1    
    25   12   13 ar   
    26   12   82 1    
    27   13   14 ar   
    28   13   15 1    
    29   14   83 1    
    30   15   16 1    
    31   15   84 1    
    32   15   85 1    
    33   16   17 1    
    34   17   18 1    
    35   17   86 1    
    36   17   87 1    
    37   18   19 1    
    38   18   37 1    
    39   18   88 1    
    40   19   20 am   BACKBONE|DICT|INTERRES
    41   19   89 1    
    42   20   21 2    
    43   20   22 1    
    44   22   23 1    
    45   22   24 1    
    46   22   90 1    
    47   23   91 1    
    48   23   92 1    
    49   23   93 1    
    50   24   25 am   BACKBONE|DICT|INTERRES
    51   24   94 1    
    52   25   26 2    
    53   25   27 1    
    54   27   28 1    
    55   27   29 1    
    56   27   95 1    
    57   28   96 1    
    58   28   97 1    
    59   28   98 1    
    60   29   30 am   BACKBONE|DICT|INTERRES
    61   29   99 1    
    62   30   31 2    
    63   30   32 1    
    64   32   33 1    
    65   32   34 1    
    66   32  100 1    
    67   33  101 1    
    68   33  102 1    
    69   33  103 1    
    70   34   35 am   BACKBONE|DICT|INTERRES
    71   34  104 1    
    72   35   36 2    
    73   37   38 2    
    74   37   39 am   BACKBONE|DICT|INTERRES
    75   39   40 1    
    76   39  105 1    
    77   40   41 1    
    78   40   42 1    
    79   40  106 1    
    80   41  107 1    
    81   41  108 1    
    82   41  109 1    
    83   42   43 2    
    84   42   44 am   BACKBONE|DICT|INTERRES
    85   44   45 1    
    86   44  110 1    
    87   45   46 1    
    88   45   47 1    
    89   45  111 1    
    90   46  112 1    
    91   46  113 1    
    92   46  114 1    
    93   47   48 2    
    94   47   49 am   BACKBONE|DICT|INTERRES
    95   49   50 1    
    96   49  115 1    
    97   50   51 1    
    98   50   52 1    
    99   50  116 1    
   100   51  117 1    
   101   51  118 1    
   102   51  119 1    
   103   52   53 2    
   104   52   54 am   BACKBONE|DICT|INTERRES
   105   54   55 1    
   106   54  120 1    
   107   55   56 1    
   108   55   57 1    
   109   55  121 1    
   110   56  122 1    
   111   56  123 1    
   112   56  124 1    
   113   57   58 2    
   114   57   59 am   BACKBONE|DICT|INTERRES
   115   59   60 1    
   116   59  125 1    
   117   60   61 1    
   118   60   62 1    
   119   60  126 1    
   120   61  127 1    
   121   61  128 1    
   122   61  129 1    
   123   62   63 2    
   124   62   64 am   BACKBONE|DICT|INTERRES
   125   64   65 1    
   126   64  130 1    
   127   65   66 1    
   128   65   69 1    
   129   65  131 1    
   130   66   67 am   BACKBONE|DICT|INTERRES
   131   66   68 2    
   132   67  132 1    
   133   67  133 1    
   134   69   70 1    
   135   69  134 1    
   136   69  135 1    
   137   70   71 1    
   138   71  136 1    
   139   71  137 1    
@<TRIPOS>SUBSTRUCTURE
     1 UNK         1 GROUP             0       ****    0 ROOT    
