@<TRIPOS>MOLECULE
3R137
137   139    1
SMALL
USER_CHARGES


@<TRIPOS>ATOM
      1 CA         28.0242   -3.7777    4.4784 C.3       0 UNK        -0.2020 
      2 C          28.3718   -3.0040    3.2153 C.2       0 UNK         0.4855 
      3 O          29.2710   -2.1629    3.2396 O.2       0 UNK        -0.5197 
      4 N          27.6642   -3.2762    2.1159 N.am      1 UNK        -0.4892 
      5 CA         27.8299   -2.6346    0.8123 C.3       1 UNK         0.0835 
      6 C6         29.1036   -3.1037    0.0553 C.3       12 UNK        -0.0855 
      7 S7         29.1778   -4.8995   -0.2799 S.3       12 UNK        -0.2931 
      8 C8         30.7333   -5.0166   -1.2215 C.3       12 UNK         0.0378 
      9 C9         30.6095   -4.3728   -2.5953 C.ar      12 UNK        -0.0802 
     10 C10        31.1043   -3.0877   -2.8218 C.ar      12 UNK        -0.0944 
     11 C11        30.9642   -2.4750   -4.0705 C.ar      12 UNK        -0.0787 
     12 C12        30.3331   -3.1739   -5.1092 C.ar      12 UNK        -0.0862 
     13 C13        29.8364   -4.4707   -4.8975 C.ar      12 UNK        -0.0733 
     14 C14        29.9853   -5.0587   -3.6378 C.ar      12 UNK        -0.0832 
     15 C15        29.1479   -5.2932   -5.9887 C.3       12 UNK         0.0240 
     16 S16        28.3450   -4.3468   -7.3222 S.3       12 UNK        -0.2522 
     17 C17        27.0567   -3.4146   -6.4227 C.3       12 UNK        -0.0967 
     18 CA         26.6362   -2.1555   -7.2165 C.3       5 UNK         0.0660 
     19 N          25.3471   -1.6079   -6.7933 N.am      5 UNK        -0.4015 
     20 C          24.6410   -0.7233   -7.5150 C.2       4 UNK         0.4946 
     21 O          24.9773   -0.3192   -8.6284 O.2       4 UNK        -0.5353 
     22 CA         23.3695   -0.1562   -6.8646 C.3       4 UNK         0.0277 
     23 CB         22.2000   -1.1450   -6.9956 C.3       4 UNK        -0.1981 
     24 N          23.5725    0.1919   -5.4570 N.am      4 UNK        -0.4209 
     25 C          24.4054    1.1522   -5.0299 C.2       3 UNK         0.4942 
     26 O          25.0482    1.8873   -5.7801 O.2       3 UNK        -0.5208 
     27 CA         24.5821    1.2853   -3.5076 C.3       3 UNK         0.0250 
     28 CB         23.5112    2.2189   -2.9210 C.3       3 UNK        -0.1990 
     29 N          24.5664    0.0036   -2.7897 N.am      3 UNK        -0.4232 
     30 C          25.4409   -0.9928   -2.9872 C.2       2 UNK         0.4993 
     31 O          26.3345   -0.9648   -3.8353 O.2       2 UNK        -0.5286 
     32 CA         25.3201   -2.2187   -2.0807 C.3       2 UNK         0.0209 
     33 CB         25.2810   -3.5267   -2.8949 C.3       2 UNK        -0.1931 
     34 N          26.4742   -2.2123   -1.1885 N.am      2 UNK        -0.4546 
     35 C          26.5285   -2.8127    0.0053 C.2       1 UNK         0.5154 
     36 O          25.5975   -3.4732    0.4793 O.2       1 UNK        -0.5181 
     37 C          27.7302   -1.0744   -7.2051 C.2       5 UNK         0.5014 
     38 O          28.4994   -1.0056   -8.1603 O.2       5 UNK        -0.5248 
     39 N          27.7578   -0.2245   -6.1674 N.am      6 UNK        -0.4434 
     40 CA         28.6868    0.9027   -6.0537 C.3       6 UNK         0.0363 
     41 CB         28.4756    1.6358   -4.7205 C.3       6 UNK        -0.1936 
     42 C          28.6106    1.8772   -7.2380 C.2       6 UNK         0.5081 
     43 O          29.6555    2.3039   -7.7312 O.2       6 UNK        -0.5248 
     44 N          27.3856    2.1634   -7.6982 N.am      7 UNK        -0.4718 
     45 CA         27.1177    2.9272   -8.9143 C.3       7 UNK         0.0273 
     46 CB         25.6333    3.3254   -8.9545 C.3       7 UNK        -0.1935 
     47 C          27.5214    2.1667  -10.1898 C.2       7 UNK         0.5018 
     48 O          28.2356    2.7299  -11.0193 O.2       7 UNK        -0.5186 
     49 N          27.0609    0.9138  -10.3291 N.am      8 UNK        -0.4240 
     50 CA         27.2664    0.0813  -11.5204 C.3       8 UNK         0.0235 
     51 CB         26.3817   -1.1728  -11.4386 C.3       8 UNK        -0.2000 
     52 C          28.7322   -0.3116  -11.7696 C.2       8 UNK         0.4941 
     53 O          29.1927   -0.2268  -12.9088 O.2       8 UNK        -0.5273 
     54 N          29.4375   -0.7330  -10.7122 N.am      9 UNK        -0.4262 
     55 CA         30.8481   -1.1269  -10.7552 C.3       9 UNK         0.0264 
     56 CB         31.1379   -2.0992   -9.5979 C.3       9 UNK        -0.1955 
     57 C          31.8066    0.0740  -10.6922 C.2       9 UNK         0.5031 
     58 O          32.9944   -0.1068  -10.9646 O.2       9 UNK        -0.5390 
     59 N          31.2861    1.2571  -10.3287 N.am      10 UNK        -0.4204 
     60 CA         31.9995    2.5180  -10.1077 C.3       10 UNK         0.0237 
     61 CB         32.5918    3.0600  -11.4266 C.3       10 UNK        -0.1985 
     62 C          33.0370    2.3876   -8.9776 C.2       10 UNK         0.4970 
     63 O          34.2281    2.6179   -9.1981 O.2       10 UNK        -0.4914 
     64 N          32.5572    2.0057   -7.7860 N.am      11 UNK        -0.4285 
     65 CA         33.3740    1.8782   -6.5665 C.3       11 UNK         0.1007 
     66 C          33.9279    3.2299   -6.0234 C.2       11 UNK         0.5703 
     67 N          33.3577    4.3756   -6.3797 N.am      11 UNK        -0.7361 
     68 O          34.8959    3.2359   -5.2665 O.2       11 UNK        -0.4986 
     69 C69        32.6283    1.1216   -5.4369 C.3       12 UNK        -0.0947 
     70 S70        32.2573   -0.6282   -5.7999 S.3       12 UNK        -0.2240 
     71 C71        31.4290   -1.0296   -4.2244 C.3       12 UNK         0.0194 
     72 H72        27.7174   -3.0913    5.2671 H         1 UNK         0.0906 
     73 H73        27.2137   -4.4872    4.3116 H         1 UNK         0.0906 
     74 H74        28.8936   -4.3333    4.8287 H         1 UNK         0.0906 
     75 H75        26.8940   -3.9348    2.1382 H         1 UNK         0.3140 
     76 H76        27.9207   -1.5602    0.9890 H         1 UNK         0.1085 
     77 H77        29.1953   -2.5629   -0.8868 H         1 UNK         0.0836 
     78 H78        29.9898   -2.8321    0.6307 H         1 UNK         0.0836 
     79 H79        31.5417   -4.5584   -0.6493 H         1 UNK         0.0731 
     80 H80        30.9996   -6.0686   -1.3347 H         1 UNK         0.0731 
     81 H81        31.5754   -2.5510   -2.0093 H         1 UNK         0.1312 
     82 H82        30.2188   -2.6988   -6.0736 H         1 UNK         0.1406 
     83 H83        29.6032   -6.0552   -3.4596 H         1 UNK         0.1631 
     84 H84        29.8921   -5.9509   -6.4393 H         1 UNK         0.0717 
     85 H85        28.3929   -5.9432   -5.5433 H         1 UNK         0.0717 
     86 H86        26.2032   -4.0800   -6.2851 H         1 UNK         0.0934 
     87 H87        27.4044   -3.1487   -5.4228 H         1 UNK         0.0934 
     88 H88        26.5041   -2.4606   -8.2570 H         1 UNK         0.0739 
     89 H89        25.0366   -1.8394   -5.8619 H         1 UNK         0.3093 
     90 H90        23.1052    0.7582   -7.4007 H         1 UNK         0.0818 
     91 H91        21.2734   -0.7154   -6.6144 H         1 UNK         0.0819 
     92 H92        22.0271   -1.4056   -8.0409 H         1 UNK         0.0819 
     93 H93        22.3871   -2.0736   -6.4552 H         1 UNK         0.0819 
     94 H94        23.0734   -0.3525   -4.7687 H         1 UNK         0.3041 
     95 H95        25.5582    1.7418   -3.3334 H         1 UNK         0.0784 
     96 H96        23.5179    3.1858   -3.4265 H         1 UNK         0.0793 
     97 H97        22.5082    1.8033   -3.0263 H         1 UNK         0.0793 
     98 H98        23.6871    2.4095   -1.8620 H         1 UNK         0.0793 
     99 H99        23.8709   -0.0940   -2.0633 H         1 UNK         0.3024 
    100 H100       24.4016   -2.1413   -1.4940 H         1 UNK         0.1171 
    101 H101       25.1018   -4.3871   -2.2499 H         1 UNK         0.0786 
    102 H102       24.4819   -3.5068   -3.6368 H         1 UNK         0.0786 
    103 H103       26.2193   -3.7014   -3.4217 H         1 UNK         0.0786 
    104 H104       27.2657   -1.6783   -1.5225 H         1 UNK         0.2977 
    105 H105       27.1295   -0.3867   -5.3818 H         1 UNK         0.3127 
    106 H106       29.6879    0.4794   -6.0627 H         1 UNK         0.0770 
    107 H107       27.5104    2.1400   -4.6881 H         1 UNK         0.0814 
    108 H108       29.2427    2.3964   -4.5711 H         1 UNK         0.0814 
    109 H109       28.5239    0.9516   -3.8734 H         1 UNK         0.0814 
    110 H110       26.5821    1.8052   -7.1913 H         1 UNK         0.2983 
    111 H111       27.7123    3.8427   -8.8736 H         1 UNK         0.0947 
    112 H112       25.4081    3.9063   -9.8499 H         1 UNK         0.0806 
    113 H113       25.3660    3.9384   -8.0935 H         1 UNK         0.0806 
    114 H114       24.9782    2.4534   -8.9557 H         1 UNK         0.0806 
    115 H115       26.4630    0.5262   -9.6034 H         1 UNK         0.3000 
    116 H116       26.9373    0.6649  -12.3829 H         1 UNK         0.0850 
    117 H117       26.4975   -1.7931  -12.3284 H         1 UNK         0.0810 
    118 H118       25.3265   -0.9096  -11.3624 H         1 UNK         0.0810 
    119 H119       26.6358   -1.7885  -10.5755 H         1 UNK         0.0810 
    120 H120       28.9856   -0.7877   -9.7961 H         1 UNK         0.3040 
    121 H121       31.0374   -1.6519  -11.6939 H         1 UNK         0.0766 
    122 H122       30.4566   -2.9502   -9.6100 H         1 UNK         0.0812 
    123 H123       31.0441   -1.6104   -8.6272 H         1 UNK         0.0812 
    124 H124       32.1528   -2.4930   -9.6638 H         1 UNK         0.0812 
    125 H125       30.2978    1.2799  -10.1149 H         1 UNK         0.3205 
    126 H126       31.2541    3.2381   -9.7665 H         1 UNK         0.0754 
    127 H127       33.0392    4.0432  -11.2762 H         1 UNK         0.0769 
    128 H128       31.8210    3.1676  -12.1899 H         1 UNK         0.0769 
    129 H129       33.3694    2.4078  -11.8254 H         1 UNK         0.0769 
    130 H130       31.5534    1.8890   -7.6821 H         1 UNK         0.2981 
    131 H131       34.2502    1.2837   -6.8325 H         1 UNK         0.0541 
    132 H132       32.5576    4.3808   -6.9913 H         1 UNK         0.3459 
    133 H133       33.7282    5.2426   -6.0241 H         1 UNK         0.3459 
    134 H134       33.2245    1.1303   -4.5220 H         1 UNK         0.0612 
    135 H135       31.6971    1.6368   -5.1948 H         1 UNK         0.0612 
    136 H136       32.1182   -0.7766   -3.4171 H         1 UNK         0.0624 
    137 H137       30.5632   -0.3822   -4.0947 H         1 UNK         0.0624 
@<TRIPOS>BOND
     1    1    2 1    
     2    1   72 1    
     3    1   73 1    
     4    1   74 1    
     5    2    3 2    
     6    2    4 am   BACKBONE|DICT|INTERRES
     7    4    5 1    
     8    4   75 1    
     9    5    6 1    
    10    5   35 1    
    11    5   76 1    
    12    6    7 1    
    13    6   77 1    
    14    6   78 1    
    15    7    8 1    
    16    8    9 1    
    17    8   79 1    
    18    8   80 1    
    19    9   10 ar   
    20    9   14 ar   
    21   10   11 ar   
    22   10   81 1    
    23   11   12 ar   
    24   11   71 1    
    25   12   13 ar   
    26   12   82 1    
    27   13   14 ar   
    28   13   15 1    
    29   14   83 1    
    30   15   16 1    
    31   15   84 1    
    32   15   85 1    
    33   16   17 1    
    34   17   18 1    
    35   17   86 1    
    36   17   87 1    
    37   18   19 1    
    38   18   37 1    
    39   18   88 1    
    40   19   20 am   BACKBONE|DICT|INTERRES
    41   19   89 1    
    42   20   21 2    
    43   20   22 1    
    44   22   23 1    
    45   22   24 1    
    46   22   90 1    
    47   23   91 1    
    48   23   92 1    
    49   23   93 1    
    50   24   25 am   BACKBONE|DICT|INTERRES
    51   24   94 1    
    52   25   26 2    
    53   25   27 1    
    54   27   28 1    
    55   27   29 1    
    56   27   95 1    
    57   28   96 1    
    58   28   97 1    
    59   28   98 1    
    60   29   30 am   BACKBONE|DICT|INTERRES
    61   29   99 1    
    62   30   31 2    
    63   30   32 1    
    64   32   33 1    
    65   32   34 1    
    66   32  100 1    
    67   33  101 1    
    68   33  102 1    
    69   33  103 1    
    70   34   35 am   BACKBONE|DICT|INTERRES
    71   34  104 1    
    72   35   36 2    
    73   37   38 2    
    74   37   39 am   BACKBONE|DICT|INTERRES
    75   39   40 1    
    76   39  105 1    
    77   40   41 1    
    78   40   42 1    
    79   40  106 1    
    80   41  107 1    
    81   41  108 1    
    82   41  109 1    
    83   42   43 2    
    84   42   44 am   BACKBONE|DICT|INTERRES
    85   44   45 1    
    86   44  110 1    
    87   45   46 1    
    88   45   47 1    
    89   45  111 1    
    90   46  112 1    
    91   46  113 1    
    92   46  114 1    
    93   47   48 2    
    94   47   49 am   BACKBONE|DICT|INTERRES
    95   49   50 1    
    96   49  115 1    
    97   50   51 1    
    98   50   52 1    
    99   50  116 1    
   100   51  117 1    
   101   51  118 1    
   102   51  119 1    
   103   52   53 2    
   104   52   54 am   BACKBONE|DICT|INTERRES
   105   54   55 1    
   106   54  120 1    
   107   55   56 1    
   108   55   57 1    
   109   55  121 1    
   110   56  122 1    
   111   56  123 1    
   112   56  124 1    
   113   57   58 2    
   114   57   59 am   BACKBONE|DICT|INTERRES
   115   59   60 1    
   116   59  125 1    
   117   60   61 1    
   118   60   62 1    
   119   60  126 1    
   120   61  127 1    
   121   61  128 1    
   122   61  129 1    
   123   62   63 2    
   124   62   64 am   BACKBONE|DICT|INTERRES
   125   64   65 1    
   126   64  130 1    
   127   65   66 1    
   128   65   69 1    
   129   65  131 1    
   130   66   67 am   BACKBONE|DICT|INTERRES
   131   66   68 2    
   132   67  132 1    
   133   67  133 1    
   134   69   70 1    
   135   69  134 1    
   136   69  135 1    
   137   70   71 1    
   138   71  136 1    
   139   71  137 1    
@<TRIPOS>SUBSTRUCTURE
     1 UNK         1 GROUP             0       ****    0 ROOT    
