@<TRIPOS>MOLECULE
3R137
137   139    1
SMALL
USER_CHARGES


@<TRIPOS>ATOM
      1 CA         24.6360   -5.9828   -0.8031 C.3       0 UNK        -0.2020 
      2 C          25.6269   -4.8604   -1.0756 C.2       0 UNK         0.4855 
      3 O          25.6795   -4.3601   -2.1984 O.2       0 UNK        -0.5197 
      4 N          26.4057   -4.4743   -0.0545 N.am      1 UNK        -0.4892 
      5 CA         27.4154   -3.4033   -0.0725 C.3       1 UNK         0.0835 
      6 C6         28.5997   -3.6768   -1.0445 C.3       12 UNK        -0.0855 
      7 S7         29.3925   -5.3074   -0.8250 S.3       12 UNK        -0.2931 
      8 C8         31.0385   -5.0157   -1.5637 C.3       12 UNK         0.0378 
      9 C9         30.9667   -4.2602   -2.8869 C.ar      12 UNK        -0.0802 
     10 C10        31.6200   -3.0305   -3.0309 C.ar      12 UNK        -0.0944 
     11 C11        31.5323   -2.3075   -4.2251 C.ar      12 UNK        -0.0787 
     12 C12        30.7500   -2.8222   -5.2668 C.ar      12 UNK        -0.0862 
     13 C13        30.1093   -4.0583   -5.1482 C.ar      12 UNK        -0.0733 
     14 C14        30.2334   -4.7798   -3.9586 C.ar      12 UNK        -0.0832 
     15 C15        29.3217   -4.6239   -6.3247 C.3       12 UNK         0.0240 
     16 S16        27.5734   -4.9813   -5.9429 S.3       12 UNK        -0.2522 
     17 C17        26.9152   -3.3721   -5.3915 C.3       12 UNK        -0.0967 
     18 CA         26.6420   -2.3809   -6.5586 C.3       5 UNK         0.0660 
     19 N          25.3798   -1.6527   -6.3909 N.am      5 UNK        -0.4015 
     20 C          24.8321   -0.8454   -7.3132 C.2       4 UNK         0.4946 
     21 O          25.3165   -0.6467   -8.4258 O.2       4 UNK        -0.5353 
     22 CA         23.5361   -0.1095   -6.9374 C.3       4 UNK         0.0277 
     23 CB         22.3105   -0.9162   -7.3947 C.3       4 UNK        -0.1981 
     24 N          23.4184    0.1888   -5.5102 N.am      4 UNK        -0.4209 
     25 C          24.2356    0.9909   -4.8133 C.2       3 UNK         0.4942 
     26 O          25.1931    1.5896   -5.3101 O.2       3 UNK        -0.5208 
     27 CA         23.9273    1.1501   -3.3086 C.3       3 UNK         0.0250 
     28 CB         22.8831    0.1426   -2.7723 C.3       3 UNK        -0.1990 
     29 N          25.1158    1.1069   -2.4493 N.am      3 UNK        -0.4232 
     30 C          26.0912    0.1860   -2.4402 C.2       2 UNK         0.4993 
     31 O          26.2245   -0.6965   -3.2947 O.2       2 UNK        -0.5286 
     32 CA         27.1145    0.2746   -1.2874 C.3       2 UNK         0.0209 
     33 CB         26.6615    1.1408   -0.0873 C.3       2 UNK        -0.1931 
     34 N          27.5323   -1.0630   -0.8503 N.am      2 UNK        -0.4546 
     35 C          26.7654   -2.0120   -0.2877 C.2       1 UNK         0.5154 
     36 O          25.6030   -1.8199    0.0819 O.2       1 UNK        -0.5181 
     37 C          27.8100   -1.3973   -6.7431 C.2       5 UNK         0.5014 
     38 O          28.5185   -1.4595   -7.7501 O.2       5 UNK        -0.5248 
     39 N          27.9537   -0.4797   -5.7770 N.am      6 UNK        -0.4434 
     40 CA         28.9744    0.5664   -5.7760 C.3       6 UNK         0.0363 
     41 CB         28.9671    1.2752   -4.4170 C.3       6 UNK        -0.1936 
     42 C          28.8164    1.5698   -6.9269 C.2       6 UNK         0.5081 
     43 O          29.8270    2.0399   -7.4499 O.2       6 UNK        -0.5248 
     44 N          27.5680    1.8608   -7.3180 N.am      7 UNK        -0.4718 
     45 CA         27.2483    2.6966   -8.4754 C.3       7 UNK         0.0273 
     46 CB         25.7536    3.0524   -8.4670 C.3       7 UNK        -0.1935 
     47 C          27.6502    2.0367   -9.8055 C.2       7 UNK         0.5018 
     48 O          28.2966    2.6894  -10.6250 O.2       7 UNK        -0.5186 
     49 N          27.2793    0.7606   -9.9927 N.am      8 UNK        -0.4240 
     50 CA         27.5668   -0.0170  -11.2018 C.3       8 UNK         0.0235 
     51 CB         26.7568   -1.3234  -11.1897 C.3       8 UNK        -0.2000 
     52 C          29.0616   -0.3146  -11.3879 C.2       8 UNK         0.4941 
     53 O          29.5704   -0.1712  -12.5003 O.2       8 UNK        -0.5273 
     54 N          29.7397   -0.7134  -10.3031 N.am      9 UNK        -0.4262 
     55 CA         31.1758   -1.0096  -10.2996 C.3       9 UNK         0.0264 
     56 CB         31.4816   -1.9475   -9.1255 C.3       9 UNK        -0.1955 
     57 C          32.0657    0.2474  -10.2421 C.2       9 UNK         0.5031 
     58 O          33.2700    0.1326  -10.4719 O.2       9 UNK        -0.5390 
     59 N          31.4712    1.4081   -9.9277 N.am      10 UNK        -0.4204 
     60 CA         32.0773    2.7411   -9.8063 C.3       10 UNK         0.0237 
     61 CB         32.7318    3.1864  -11.1317 C.3       10 UNK        -0.1985 
     62 C          33.0155    2.9196   -8.5943 C.2       10 UNK         0.4970 
     63 O          33.6861    3.9496   -8.5051 O.2       10 UNK        -0.4914 
     64 N          33.0263    1.9536   -7.6673 N.am      11 UNK        -0.4285 
     65 CA         33.6976    2.0382   -6.3599 C.3       11 UNK         0.1007 
     66 C          32.9283    2.8742   -5.2970 C.2       11 UNK         0.5703 
     67 N          31.7019    3.3133   -5.5509 N.am      11 UNK        -0.7361 
     68 O          33.4691    3.1570   -4.2306 O.2       11 UNK        -0.4986 
     69 C69        34.1475    0.6479   -5.8252 C.3       12 UNK        -0.0947 
     70 S70        32.9377   -0.7003   -6.0460 S.3       12 UNK        -0.2240 
     71 C71        32.2884   -0.9822   -4.3637 C.3       12 UNK         0.0194 
     72 H72        24.6991   -6.3451    0.2228 H         1 UNK         0.0906 
     73 H73        23.6184   -5.6345   -0.9780 H         1 UNK         0.0906 
     74 H74        24.8286   -6.8220   -1.4710 H         1 UNK         0.0906 
     75 H75        26.2830   -4.9207    0.8435 H         1 UNK         0.3140 
     76 H76        27.8275   -3.3715    0.9374 H         1 UNK         0.1085 
     77 H77        29.3794   -2.9258   -0.9090 H         1 UNK         0.0836 
     78 H78        28.2676   -3.5977   -2.0820 H         1 UNK         0.0836 
     79 H79        31.6501   -4.4720   -0.8421 H         1 UNK         0.0731 
     80 H80        31.5324   -5.9750   -1.7238 H         1 UNK         0.0731 
     81 H81        32.2006   -2.6336   -2.2092 H         1 UNK         0.1312 
     82 H82        30.6528   -2.2692   -6.1874 H         1 UNK         0.1406 
     83 H83        29.7342   -5.7340   -3.8555 H         1 UNK         0.1631 
     84 H84        29.7990   -5.5505   -6.6457 H         1 UNK         0.0717 
     85 H85        29.3659   -3.9544   -7.1843 H         1 UNK         0.0717 
     86 H86        27.5598   -2.9546   -4.6147 H         1 UNK         0.0934 
     87 H87        25.9830   -3.6019   -4.8728 H         1 UNK         0.0934 
     88 H88        26.5438   -2.9460   -7.4883 H         1 UNK         0.0739 
     89 H89        24.9421   -1.7125   -5.4827 H         1 UNK         0.3093 
     90 H90        23.5327    0.8423   -7.4713 H         1 UNK         0.0818 
     91 H91        21.3850   -0.3665   -7.2219 H         1 UNK         0.0819 
     92 H92        22.3622   -1.1299   -8.4634 H         1 UNK         0.0819 
     93 H93        22.2370   -1.8725   -6.8751 H         1 UNK         0.0819 
     94 H94        22.6576   -0.2554   -5.0165 H         1 UNK         0.3041 
     95 H95        23.5086    2.1514   -3.1982 H         1 UNK         0.0784 
     96 H96        21.9210    0.2483   -3.2752 H         1 UNK         0.0793 
     97 H97        23.2176   -0.8896   -2.8881 H         1 UNK         0.0793 
     98 H98        22.6962    0.3043   -1.7103 H         1 UNK         0.0793 
     99 H99        25.1491    1.8181   -1.7329 H         1 UNK         0.3024 
    100 H100       28.0020    0.7504   -1.7022 H         1 UNK         0.1171 
    101 H101       27.3934    1.1039    0.7198 H         1 UNK         0.0786 
    102 H102       25.7051    0.8129    0.3218 H         1 UNK         0.0786 
    103 H103       26.5599    2.1894   -0.3693 H         1 UNK         0.0786 
    104 H104       28.4654   -1.3268   -1.1310 H         1 UNK         0.2977 
    105 H105       27.3077   -0.4955   -4.9917 H         1 UNK         0.3127 
    106 H106       29.9443    0.0847   -5.9062 H         1 UNK         0.0770 
    107 H107       27.9964    1.7238   -4.2031 H         1 UNK         0.0814 
    108 H108       29.7065    2.0721   -4.3766 H         1 UNK         0.0814 
    109 H109       29.2118    0.5745   -3.6202 H         1 UNK         0.0814 
    110 H110       26.7904    1.4772   -6.7922 H         1 UNK         0.2983 
    111 H111       27.8164    3.6250   -8.3813 H         1 UNK         0.0947 
    112 H112       25.5132    3.7388   -9.2800 H         1 UNK         0.0806 
    113 H113       25.4654    3.5385   -7.5346 H         1 UNK         0.0806 
    114 H114       25.1274    2.1697   -8.5921 H         1 UNK         0.0806 
    115 H115       26.7207    0.2952   -9.2797 H         1 UNK         0.3000 
    116 H116       27.2402    0.5737  -12.0604 H         1 UNK         0.0850 
    117 H117       26.9555   -1.9173  -12.0828 H         1 UNK         0.0810 
    118 H118       25.6854   -1.1238  -11.1649 H         1 UNK         0.0810 
    119 H119       27.0005   -1.9405  -10.3235 H         1 UNK         0.0810 
    120 H120       29.2387   -0.8529   -9.4268 H         1 UNK         0.3040 
    121 H121       31.4265   -1.5371  -11.2225 H         1 UNK         0.0766 
    122 H122       32.5439   -2.1904   -9.0735 H         1 UNK         0.0812 
    123 H123       31.2024   -1.4824   -8.1832 H         1 UNK         0.0812 
    124 H124       30.9339   -2.8861   -9.2107 H         1 UNK         0.0812 
    125 H125       30.4831    1.3771   -9.7105 H         1 UNK         0.3205 
    126 H126       31.2391    3.4146   -9.6206 H         1 UNK         0.0754 
    127 H127       33.0214    4.2372  -11.0921 H         1 UNK         0.0769 
    128 H128       32.0441    3.0736  -11.9700 H         1 UNK         0.0769 
    129 H129       33.6314    2.6122  -11.3544 H         1 UNK         0.0769 
    130 H130       32.4262    1.1533   -7.7987 H         1 UNK         0.2981 
    131 H131       34.6189    2.6024   -6.5168 H         1 UNK         0.0541 
    132 H132       31.2163    3.0337   -6.3957 H         1 UNK         0.3459 
    133 H133       31.2347    3.8822   -4.8644 H         1 UNK         0.3459 
    134 H134       35.0401    0.3428   -6.3731 H         1 UNK         0.0612 
    135 H135       34.4626    0.6994   -4.7815 H         1 UNK         0.0612 
    136 H136       33.1262   -0.9643   -3.6651 H         1 UNK         0.0624 
    137 H137       31.6317   -0.1571   -4.0878 H         1 UNK         0.0624 
@<TRIPOS>BOND
     1    1    2 1    
     2    1   72 1    
     3    1   73 1    
     4    1   74 1    
     5    2    3 2    
     6    2    4 am   BACKBONE|DICT|INTERRES
     7    4    5 1    
     8    4   75 1    
     9    5    6 1    
    10    5   35 1    
    11    5   76 1    
    12    6    7 1    
    13    6   77 1    
    14    6   78 1    
    15    7    8 1    
    16    8    9 1    
    17    8   79 1    
    18    8   80 1    
    19    9   10 ar   
    20    9   14 ar   
    21   10   11 ar   
    22   10   81 1    
    23   11   12 ar   
    24   11   71 1    
    25   12   13 ar   
    26   12   82 1    
    27   13   14 ar   
    28   13   15 1    
    29   14   83 1    
    30   15   16 1    
    31   15   84 1    
    32   15   85 1    
    33   16   17 1    
    34   17   18 1    
    35   17   86 1    
    36   17   87 1    
    37   18   19 1    
    38   18   37 1    
    39   18   88 1    
    40   19   20 am   BACKBONE|DICT|INTERRES
    41   19   89 1    
    42   20   21 2    
    43   20   22 1    
    44   22   23 1    
    45   22   24 1    
    46   22   90 1    
    47   23   91 1    
    48   23   92 1    
    49   23   93 1    
    50   24   25 am   BACKBONE|DICT|INTERRES
    51   24   94 1    
    52   25   26 2    
    53   25   27 1    
    54   27   28 1    
    55   27   29 1    
    56   27   95 1    
    57   28   96 1    
    58   28   97 1    
    59   28   98 1    
    60   29   30 am   BACKBONE|DICT|INTERRES
    61   29   99 1    
    62   30   31 2    
    63   30   32 1    
    64   32   33 1    
    65   32   34 1    
    66   32  100 1    
    67   33  101 1    
    68   33  102 1    
    69   33  103 1    
    70   34   35 am   BACKBONE|DICT|INTERRES
    71   34  104 1    
    72   35   36 2    
    73   37   38 2    
    74   37   39 am   BACKBONE|DICT|INTERRES
    75   39   40 1    
    76   39  105 1    
    77   40   41 1    
    78   40   42 1    
    79   40  106 1    
    80   41  107 1    
    81   41  108 1    
    82   41  109 1    
    83   42   43 2    
    84   42   44 am   BACKBONE|DICT|INTERRES
    85   44   45 1    
    86   44  110 1    
    87   45   46 1    
    88   45   47 1    
    89   45  111 1    
    90   46  112 1    
    91   46  113 1    
    92   46  114 1    
    93   47   48 2    
    94   47   49 am   BACKBONE|DICT|INTERRES
    95   49   50 1    
    96   49  115 1    
    97   50   51 1    
    98   50   52 1    
    99   50  116 1    
   100   51  117 1    
   101   51  118 1    
   102   51  119 1    
   103   52   53 2    
   104   52   54 am   BACKBONE|DICT|INTERRES
   105   54   55 1    
   106   54  120 1    
   107   55   56 1    
   108   55   57 1    
   109   55  121 1    
   110   56  122 1    
   111   56  123 1    
   112   56  124 1    
   113   57   58 2    
   114   57   59 am   BACKBONE|DICT|INTERRES
   115   59   60 1    
   116   59  125 1    
   117   60   61 1    
   118   60   62 1    
   119   60  126 1    
   120   61  127 1    
   121   61  128 1    
   122   61  129 1    
   123   62   63 2    
   124   62   64 am   BACKBONE|DICT|INTERRES
   125   64   65 1    
   126   64  130 1    
   127   65   66 1    
   128   65   69 1    
   129   65  131 1    
   130   66   67 am   BACKBONE|DICT|INTERRES
   131   66   68 2    
   132   67  132 1    
   133   67  133 1    
   134   69   70 1    
   135   69  134 1    
   136   69  135 1    
   137   70   71 1    
   138   71  136 1    
   139   71  137 1    
@<TRIPOS>SUBSTRUCTURE
     1 UNK         1 GROUP             0       ****    0 ROOT    
