@<TRIPOS>MOLECULE
3R137
137   139    1
SMALL
USER_CHARGES


@<TRIPOS>ATOM
      1 CA         25.9609   -6.9021    2.1479 C.3       0 UNK        -0.2020 
      2 C          26.1526   -5.4548    1.7201 C.2       0 UNK         0.4855 
      3 O          25.3889   -4.5855    2.1415 O.2       0 UNK        -0.5197 
      4 N          27.1699   -5.1867    0.8919 N.am      1 UNK        -0.4892 
      5 CA         27.4564   -3.8681    0.3210 C.3       1 UNK         0.0835 
      6 C6         28.9262   -3.7807   -0.1723 C.3       12 UNK        -0.0855 
      7 S7         29.6281   -2.0947   -0.1102 S.3       12 UNK        -0.2931 
      8 C8         29.1382   -1.3457   -1.6988 C.3       12 UNK         0.0378 
      9 C9         29.8196   -1.9764   -2.9064 C.ar      12 UNK        -0.0802 
     10 C10        31.0073   -1.4462   -3.4173 C.ar      12 UNK        -0.0944 
     11 C11        31.5937   -1.9894   -4.5674 C.ar      12 UNK        -0.0787 
     12 C12        31.0004   -3.0989   -5.1841 C.ar      12 UNK        -0.0862 
     13 C13        29.8270   -3.6554   -4.6638 C.ar      12 UNK        -0.0733 
     14 C14        29.2355   -3.0713   -3.5431 C.ar      12 UNK        -0.0832 
     15 C15        29.2232   -4.9236   -5.2573 C.3       12 UNK         0.0240 
     16 S16        28.1535   -4.6283   -6.7014 S.3       12 UNK        -0.2522 
     17 C17        26.7919   -3.6162   -6.0150 C.3       12 UNK        -0.0967 
     18 CA         26.5202   -2.3391   -6.8455 C.3       5 UNK         0.0660 
     19 N          25.3368   -1.6156   -6.3803 N.am      5 UNK        -0.4015 
     20 C          24.6680   -0.7247   -7.1291 C.2       4 UNK         0.4946 
     21 O          24.9382   -0.4785   -8.3052 O.2       4 UNK        -0.5353 
     22 CA         23.5373    0.0595   -6.4396 C.3       4 UNK         0.0277 
     23 CB         22.2249   -0.7396   -6.4727 C.3       4 UNK        -0.1981 
     24 N          23.8590    0.4224   -5.0571 N.am      4 UNK        -0.4209 
     25 C          24.8774    1.2188   -4.7016 C.2       3 UNK         0.4942 
     26 O          25.5949    1.8041   -5.5110 O.2       3 UNK        -0.5208 
     27 CA         25.1824    1.3595   -3.2000 C.3       3 UNK         0.0250 
     28 CB         24.5924    2.6704   -2.6566 C.3       3 UNK        -0.1990 
     29 N          24.7249    0.2390   -2.3697 N.am      3 UNK        -0.4232 
     30 C          25.1235   -1.0360   -2.4873 C.2       2 UNK         0.4993 
     31 O          25.8843   -1.4368   -3.3721 O.2       2 UNK        -0.5286 
     32 CA         24.5388   -2.0151   -1.4577 C.3       2 UNK         0.0209 
     33 CB         23.6660   -3.0968   -2.1284 C.3       2 UNK        -0.1931 
     34 N          25.5776   -2.5662   -0.5748 N.am      2 UNK        -0.4546 
     35 C          26.4357   -3.5725   -0.7998 C.2       1 UNK         0.5154 
     36 O          26.4384   -4.2832   -1.8067 O.2       1 UNK        -0.5181 
     37 C          27.7351   -1.3948   -6.9269 C.2       5 UNK         0.5014 
     38 O          28.4726   -1.4646   -7.9089 O.2       5 UNK        -0.5248 
     39 N          27.8931   -0.4920   -5.9458 N.am      6 UNK        -0.4434 
     40 CA         28.9558    0.5192   -5.9399 C.3       6 UNK         0.0363 
     41 CB         28.9318    1.3206   -4.6299 C.3       6 UNK        -0.1936 
     42 C          28.8882    1.4644   -7.1507 C.2       6 UNK         0.5081 
     43 O          29.9177    1.7366   -7.7688 O.2       6 UNK        -0.5248 
     44 N          27.6702    1.9075   -7.4914 N.am      7 UNK        -0.4718 
     45 CA         27.3707    2.7116   -8.6762 C.3       7 UNK         0.0273 
     46 CB         25.9130    3.1940   -8.6109 C.3       7 UNK        -0.1935 
     47 C          27.6378    1.9636   -9.9931 C.2       7 UNK         0.5018 
     48 O          28.1764    2.5657  -10.9221 O.2       7 UNK        -0.5186 
     49 N          27.2780    0.6722  -10.0475 N.am      8 UNK        -0.4240 
     50 CA         27.5293   -0.2069  -11.1934 C.3       8 UNK         0.0235 
     51 CB         26.7236   -1.5072  -11.0421 C.3       8 UNK        -0.2000 
     52 C          29.0245   -0.5090  -11.3929 C.2       8 UNK         0.4941 
     53 O          29.5017   -0.4698  -12.5278 O.2       8 UNK        -0.5273 
     54 N          29.7364   -0.7894  -10.2924 N.am      9 UNK        -0.4262 
     55 CA         31.1825   -1.0209  -10.2639 C.3       9 UNK         0.0264 
     56 CB         31.5718   -1.6225   -8.9024 C.3       9 UNK        -0.1955 
     57 C          32.0056    0.2498  -10.5357 C.2       9 UNK         0.5031 
     58 O          33.1159    0.1408  -11.0581 O.2       9 UNK        -0.5390 
     59 N          31.4573    1.4151  -10.1577 N.am      10 UNK        -0.4204 
     60 CA         32.0678    2.7492  -10.1927 C.3       10 UNK         0.0237 
     61 CB         32.3551    3.1982  -11.6413 C.3       10 UNK        -0.1985 
     62 C          33.2929    2.8566   -9.2629 C.2       10 UNK         0.4970 
     63 O          34.2526    3.5607   -9.5825 O.2       10 UNK        -0.4914 
     64 N          33.2345    2.1481   -8.1284 N.am      11 UNK        -0.4285 
     65 CA         34.2886    2.0899   -7.1051 C.3       11 UNK         0.1007 
     66 C          34.3259    3.3094   -6.1376 C.2       11 UNK         0.5703 
     67 N          33.3512    4.2114   -6.1635 N.am      11 UNK        -0.7361 
     68 O          35.2688    3.4491   -5.3619 O.2       11 UNK        -0.4986 
     69 C69        34.2681    0.7319   -6.3527 C.3       12 UNK        -0.0947 
     70 S70        32.6644    0.3657   -5.5679 S.3       12 UNK        -0.2240 
     71 C71        32.8763   -1.3880   -5.1294 C.3       12 UNK         0.0194 
     72 H72        26.7105   -7.5606    1.7094 H         1 UNK         0.0906 
     73 H73        26.0299   -6.9852    3.2322 H         1 UNK         0.0906 
     74 H74        24.9773   -7.2566    1.8409 H         1 UNK         0.0906 
     75 H75        27.7408   -5.9460    0.5476 H         1 UNK         0.3140 
     76 H76        27.3273   -3.1342    1.1203 H         1 UNK         0.1085 
     77 H77        29.0666   -4.2385   -1.1502 H         1 UNK         0.0836 
     78 H78        29.5594   -4.3694    0.4938 H         1 UNK         0.0836 
     79 H79        29.3828   -0.2837   -1.6557 H         1 UNK         0.0731 
     80 H80        28.0563   -1.3929   -1.8111 H         1 UNK         0.0731 
     81 H81        31.4651   -0.5932   -2.9354 H         1 UNK         0.1312 
     82 H82        31.4566   -3.5405   -6.0595 H         1 UNK         0.1406 
     83 H83        28.3167   -3.4817   -3.1557 H         1 UNK         0.1631 
     84 H84        28.6504   -5.4610   -4.4994 H         1 UNK         0.0717 
     85 H85        30.0274   -5.5976   -5.5559 H         1 UNK         0.0717 
     86 H86        25.8974   -4.2408   -6.0042 H         1 UNK         0.0934 
     87 H87        26.9786   -3.3626   -4.9734 H         1 UNK         0.0934 
     88 H88        26.3116   -2.6686   -7.8660 H         1 UNK         0.0739 
     89 H89        25.1101   -1.7080   -5.3975 H         1 UNK         0.3093 
     90 H90        23.3900    0.9850   -7.0008 H         1 UNK         0.0818 
     91 H91        21.3965   -0.1594   -6.0655 H         1 UNK         0.0819 
     92 H92        21.9580   -1.0064   -7.4964 H         1 UNK         0.0819 
     93 H93        22.2986   -1.6669   -5.9031 H         1 UNK         0.0819 
     94 H94        23.3068   -0.0040   -4.3277 H         1 UNK         0.3041 
     95 H95        26.2678    1.4092   -3.0981 H         1 UNK         0.0784 
     96 H96        24.9401    3.5256   -3.2384 H         1 UNK         0.0793 
     97 H97        23.5024    2.6709   -2.6969 H         1 UNK         0.0793 
     98 H98        24.8920    2.8435   -1.6227 H         1 UNK         0.0793 
     99 H99        24.0866    0.4783   -1.6239 H         1 UNK         0.3024 
    100 H100       23.8769   -1.4542   -0.7954 H         1 UNK         0.1171 
    101 H101       23.2974   -3.8194   -1.4002 H         1 UNK         0.0786 
    102 H102       22.7962   -2.6478   -2.6092 H         1 UNK         0.0786 
    103 H103       24.2077   -3.6435   -2.9010 H         1 UNK         0.0786 
    104 H104       25.6684   -2.0819    0.3082 H         1 UNK         0.2977 
    105 H105       27.2521   -0.5012   -5.1641 H         1 UNK         0.3127 
    106 H106       29.8973   -0.0264   -5.9949 H         1 UNK         0.0770 
    107 H107       28.0824    2.0014   -4.5822 H         1 UNK         0.0814 
    108 H108       29.8349    1.9253   -4.5368 H         1 UNK         0.0814 
    109 H109       28.8876    0.6677   -3.7615 H         1 UNK         0.0814 
    110 H110       26.8885    1.6882   -6.8773 H         1 UNK         0.2983 
    111 H111       28.0234    3.5870   -8.6560 H         1 UNK         0.0947 
    112 H112       25.6667    3.8144   -9.4737 H         1 UNK         0.0806 
    113 H113       25.7343    3.7932   -7.7178 H         1 UNK         0.0806 
    114 H114       25.2119    2.3585   -8.5963 H         1 UNK         0.0806 
    115 H115       26.8060    0.2628   -9.2494 H         1 UNK         0.3000 
    116 H116       27.1739    0.3064  -12.0896 H         1 UNK         0.0850 
    117 H117       26.8634   -2.1551  -11.9083 H         1 UNK         0.0810 
    118 H118       25.6557   -1.3046  -10.9569 H         1 UNK         0.0810 
    119 H119       27.0275   -2.0721  -10.1607 H         1 UNK         0.0810 
    120 H120       29.2450   -0.8818   -9.4020 H         1 UNK         0.3040 
    121 H121       31.4252   -1.7466  -11.0430 H         1 UNK         0.0766 
    122 H122       31.3154   -0.9540   -8.0793 H         1 UNK         0.0812 
    123 H123       32.6444   -1.8131   -8.8472 H         1 UNK         0.0812 
    124 H124       31.0625   -2.5706   -8.7276 H         1 UNK         0.0812 
    125 H125       30.5783    1.3695   -9.6509 H         1 UNK         0.3205 
    126 H126       31.3191    3.4285   -9.7824 H         1 UNK         0.0754 
    127 H127       32.6685    4.2424  -11.6717 H         1 UNK         0.0769 
    128 H128       31.4656    3.1091  -12.2652 H         1 UNK         0.0769 
    129 H129       33.1485    2.6080  -12.1008 H         1 UNK         0.0769 
    130 H130       32.3876    1.6380   -7.9158 H         1 UNK         0.2981 
    131 H131       35.2440    2.1276   -7.6319 H         1 UNK         0.0541 
    132 H132       33.3910    5.0000   -5.5377 H         1 UNK         0.3459 
    133 H133       32.5713    4.1004   -6.7906 H         1 UNK         0.3459 
    134 H134       35.0521    0.6904   -5.5945 H         1 UNK         0.0612 
    135 H135       34.4918   -0.0701   -7.0579 H         1 UNK         0.0612 
    136 H136       33.2017   -1.9372   -6.0143 H         1 UNK         0.0624 
    137 H137       33.6727   -1.4806   -4.3900 H         1 UNK         0.0624 
@<TRIPOS>BOND
     1    1    2 1    
     2    1   72 1    
     3    1   73 1    
     4    1   74 1    
     5    2    3 2    
     6    2    4 am   BACKBONE|DICT|INTERRES
     7    4    5 1    
     8    4   75 1    
     9    5    6 1    
    10    5   35 1    
    11    5   76 1    
    12    6    7 1    
    13    6   77 1    
    14    6   78 1    
    15    7    8 1    
    16    8    9 1    
    17    8   79 1    
    18    8   80 1    
    19    9   10 ar   
    20    9   14 ar   
    21   10   11 ar   
    22   10   81 1    
    23   11   12 ar   
    24   11   71 1    
    25   12   13 ar   
    26   12   82 1    
    27   13   14 ar   
    28   13   15 1    
    29   14   83 1    
    30   15   16 1    
    31   15   84 1    
    32   15   85 1    
    33   16   17 1    
    34   17   18 1    
    35   17   86 1    
    36   17   87 1    
    37   18   19 1    
    38   18   37 1    
    39   18   88 1    
    40   19   20 am   BACKBONE|DICT|INTERRES
    41   19   89 1    
    42   20   21 2    
    43   20   22 1    
    44   22   23 1    
    45   22   24 1    
    46   22   90 1    
    47   23   91 1    
    48   23   92 1    
    49   23   93 1    
    50   24   25 am   BACKBONE|DICT|INTERRES
    51   24   94 1    
    52   25   26 2    
    53   25   27 1    
    54   27   28 1    
    55   27   29 1    
    56   27   95 1    
    57   28   96 1    
    58   28   97 1    
    59   28   98 1    
    60   29   30 am   BACKBONE|DICT|INTERRES
    61   29   99 1    
    62   30   31 2    
    63   30   32 1    
    64   32   33 1    
    65   32   34 1    
    66   32  100 1    
    67   33  101 1    
    68   33  102 1    
    69   33  103 1    
    70   34   35 am   BACKBONE|DICT|INTERRES
    71   34  104 1    
    72   35   36 2    
    73   37   38 2    
    74   37   39 am   BACKBONE|DICT|INTERRES
    75   39   40 1    
    76   39  105 1    
    77   40   41 1    
    78   40   42 1    
    79   40  106 1    
    80   41  107 1    
    81   41  108 1    
    82   41  109 1    
    83   42   43 2    
    84   42   44 am   BACKBONE|DICT|INTERRES
    85   44   45 1    
    86   44  110 1    
    87   45   46 1    
    88   45   47 1    
    89   45  111 1    
    90   46  112 1    
    91   46  113 1    
    92   46  114 1    
    93   47   48 2    
    94   47   49 am   BACKBONE|DICT|INTERRES
    95   49   50 1    
    96   49  115 1    
    97   50   51 1    
    98   50   52 1    
    99   50  116 1    
   100   51  117 1    
   101   51  118 1    
   102   51  119 1    
   103   52   53 2    
   104   52   54 am   BACKBONE|DICT|INTERRES
   105   54   55 1    
   106   54  120 1    
   107   55   56 1    
   108   55   57 1    
   109   55  121 1    
   110   56  122 1    
   111   56  123 1    
   112   56  124 1    
   113   57   58 2    
   114   57   59 am   BACKBONE|DICT|INTERRES
   115   59   60 1    
   116   59  125 1    
   117   60   61 1    
   118   60   62 1    
   119   60  126 1    
   120   61  127 1    
   121   61  128 1    
   122   61  129 1    
   123   62   63 2    
   124   62   64 am   BACKBONE|DICT|INTERRES
   125   64   65 1    
   126   64  130 1    
   127   65   66 1    
   128   65   69 1    
   129   65  131 1    
   130   66   67 am   BACKBONE|DICT|INTERRES
   131   66   68 2    
   132   67  132 1    
   133   67  133 1    
   134   69   70 1    
   135   69  134 1    
   136   69  135 1    
   137   70   71 1    
   138   71  136 1    
   139   71  137 1    
@<TRIPOS>SUBSTRUCTURE
     1 UNK         1 GROUP             0       ****    0 ROOT    
