@<TRIPOS>MOLECULE
3R137
137   139    1
SMALL
USER_CHARGES


@<TRIPOS>ATOM
      1 CA         27.6082   -5.7286    0.3489 C.3       0 UNK        -0.2020 
      2 C          27.5509   -4.2876    0.8337 C.2       0 UNK         0.4855 
      3 O          27.6232   -4.0402    2.0374 O.2       0 UNK        -0.5197 
      4 N          27.4214   -3.3368   -0.0948 N.am      1 UNK        -0.4892 
      5 CA         27.3186   -1.9015    0.1485 C.3       1 UNK         0.0835 
      6 C6         28.6776   -1.2496    0.5466 C.3       12 UNK        -0.0855 
      7 S7         29.8659   -0.9262   -0.8090 S.3       12 UNK        -0.2931 
      8 C8         30.6682   -2.5440   -1.0239 C.3       12 UNK         0.0378 
      9 C9         30.6830   -2.9582   -2.4890 C.ar      12 UNK        -0.0802 
     10 C10        31.7624   -2.6137   -3.3060 C.ar      12 UNK        -0.0944 
     11 C11        31.8056   -3.0274   -4.6415 C.ar      12 UNK        -0.0787 
     12 C12        30.7470   -3.7789   -5.1659 C.ar      12 UNK        -0.0862 
     13 C13        29.6557   -4.1215   -4.3608 C.ar      12 UNK        -0.0733 
     14 C14        29.6318   -3.7071   -3.0255 C.ar      12 UNK        -0.0832 
     15 C15        28.5252   -4.9870   -4.9009 C.3       12 UNK         0.0240 
     16 S16        27.0466   -4.0112   -5.3252 S.3       12 UNK        -0.2522 
     17 C17        27.2043   -3.8198   -7.1394 C.3       12 UNK        -0.0967 
     18 CA         26.8809   -2.3971   -7.6658 C.3       5 UNK         0.0660 
     19 N          25.5722   -1.9090   -7.2063 N.am      5 UNK        -0.4015 
     20 C          25.0202   -0.7113   -7.4451 C.2       4 UNK         0.4946 
     21 O          25.6034    0.2113   -8.0116 O.2       4 UNK        -0.5353 
     22 CA         23.5736   -0.4789   -6.9733 C.3       4 UNK         0.0277 
     23 CB         22.5639   -1.0949   -7.9608 C.3       4 UNK        -0.1981 
     24 N          23.3069   -0.8903   -5.5892 N.am      4 UNK        -0.4209 
     25 C          23.3179   -2.1171   -5.0510 C.2       3 UNK         0.4942 
     26 O          23.5261   -3.1460   -5.6966 O.2       3 UNK        -0.5208 
     27 CA         23.1242   -2.1820   -3.5245 C.3       3 UNK         0.0250 
     28 CB         23.2026   -3.6198   -2.9776 C.3       3 UNK        -0.1990 
     29 N          24.1343   -1.3685   -2.8461 N.am      3 UNK        -0.4232 
     30 C          24.1067   -0.0423   -2.6723 C.2       2 UNK         0.4993 
     31 O          23.1586    0.6542   -3.0400 O.2       2 UNK        -0.5286 
     32 CA         25.3509    0.6203   -2.0342 C.3       2 UNK         0.0209 
     33 CB         25.0579    2.0422   -1.5192 C.3       2 UNK        -0.1931 
     34 N          25.9868   -0.1510   -0.9553 N.am      2 UNK        -0.4546 
     35 C          26.6728   -1.2912   -1.1072 C.2       1 UNK         0.5154 
     36 O          26.7878   -1.8739   -2.1907 O.2       1 UNK        -0.5181 
     37 C          28.0486   -1.4221   -7.4251 C.2       5 UNK         0.5014 
     38 O          28.7747   -1.1061   -8.3694 O.2       5 UNK        -0.5248 
     39 N          28.1734   -0.9338   -6.1842 N.am      6 UNK        -0.4434 
     40 CA         29.2192   -0.0053   -5.7518 C.3       6 UNK         0.0363 
     41 CB         29.1126    0.2016   -4.2356 C.3       6 UNK        -0.1936 
     42 C          29.1951    1.3473   -6.4835 C.2       6 UNK         0.5081 
     43 O          30.2552    1.9420   -6.6814 O.2       6 UNK        -0.5248 
     44 N          27.9980    1.8012   -6.8776 N.am      7 UNK        -0.4718 
     45 CA         27.7919    3.0268   -7.6463 C.3       7 UNK         0.0273 
     46 CB         26.4118    3.6167   -7.3128 C.3       7 UNK        -0.1935 
     47 C          27.9270    2.7690   -9.1534 C.2       7 UNK         0.5018 
     48 O          28.5816    3.5531   -9.8390 O.2       7 UNK        -0.5186 
     49 N          27.3248    1.6729   -9.6376 N.am      8 UNK        -0.4240 
     50 CA         27.3018    1.2660  -11.0450 C.3       8 UNK         0.0235 
     51 CB         26.3529    0.0691  -11.2205 C.3       8 UNK        -0.2000 
     52 C          28.6935    0.9426  -11.6082 C.2       8 UNK         0.4941 
     53 O          29.0182    1.3953  -12.7066 O.2       8 UNK        -0.5273 
     54 N          29.4976    0.1928  -10.8419 N.am      9 UNK        -0.4262 
     55 CA         30.8930   -0.1089  -11.1749 C.3       9 UNK         0.0264 
     56 CB         31.2800   -1.4529  -10.5370 C.3       9 UNK        -0.1955 
     57 C          31.8644    1.0024  -10.7342 C.2       9 UNK         0.5031 
     58 O          33.0340    0.9543  -11.1170 O.2       9 UNK        -0.5390 
     59 N          31.3786    1.9584   -9.9253 N.am      10 UNK        -0.4204 
     60 CA         32.1036    3.0763   -9.3041 C.3       10 UNK         0.0237 
     61 CB         32.5948    4.0737  -10.3745 C.3       10 UNK        -0.1985 
     62 C          33.2262    2.6339   -8.3411 C.2       10 UNK         0.4970 
     63 O          34.1523    3.4061   -8.0859 O.2       10 UNK        -0.4914 
     64 N          33.1246    1.4039   -7.8262 N.am      11 UNK        -0.4285 
     65 CA         34.0734    0.7840   -6.8956 C.3       11 UNK         0.1007 
     66 C          33.8159    1.1254   -5.3992 C.2       11 UNK         0.5703 
     67 N          32.6936    1.7371   -5.0372 N.am      11 UNK        -0.7361 
     68 O          34.6628    0.8452   -4.5542 O.2       11 UNK        -0.4986 
     69 C69        34.1807   -0.7413   -7.1575 C.3       12 UNK        -0.0947 
     70 S70        32.6063   -1.6323   -6.9039 S.3       12 UNK        -0.2240 
     71 C71        33.0236   -2.6980   -5.4923 C.3       12 UNK         0.0194 
     72 H72        27.5073   -5.8001   -0.7340 H         1 UNK         0.0906 
     73 H73        28.5583   -6.1812    0.6313 H         1 UNK         0.0906 
     74 H74        26.8056   -6.3094    0.8026 H         1 UNK         0.0906 
     75 H75        27.3011   -3.5678   -1.0738 H         1 UNK         0.3140 
     76 H76        26.6157   -1.7641    0.9736 H         1 UNK         0.1085 
     77 H77        28.4747   -0.2848    1.0141 H         1 UNK         0.0836 
     78 H78        29.1723   -1.8362    1.3221 H         1 UNK         0.0836 
     79 H79        31.6870   -2.4865   -0.6380 H         1 UNK         0.0731 
     80 H80        30.1668   -3.3068   -0.4284 H         1 UNK         0.0731 
     81 H81        32.5782   -2.0356   -2.8936 H         1 UNK         0.1312 
     82 H82        30.7825   -4.1059   -6.1961 H         1 UNK         0.1406 
     83 H83        28.7926   -3.9768   -2.4032 H         1 UNK         0.1631 
     84 H84        28.2439   -5.7174   -4.1408 H         1 UNK         0.0717 
     85 H85        28.8576   -5.5714   -5.7598 H         1 UNK         0.0717 
     86 H86        28.2001   -4.1268   -7.4657 H         1 UNK         0.0934 
     87 H87        26.5195   -4.5347   -7.5982 H         1 UNK         0.0934 
     88 H88        26.7884   -2.4791   -8.7505 H         1 UNK         0.0739 
     89 H89        24.9998   -2.5802   -6.6984 H         1 UNK         0.3093 
     90 H90        23.4177    0.6012   -6.9866 H         1 UNK         0.0818 
     91 H91        21.5383   -0.8609   -7.6756 H         1 UNK         0.0819 
     92 H92        22.7176   -0.7024   -8.9669 H         1 UNK         0.0819 
     93 H93        22.6555   -2.1797   -8.0209 H         1 UNK         0.0819 
     94 H94        23.1526   -0.1268   -4.9368 H         1 UNK         0.3041 
     95 H95        22.1314   -1.7864   -3.2999 H         1 UNK         0.0784 
     96 H96        22.4459   -4.2558   -3.4390 H         1 UNK         0.0793 
     97 H97        24.1756   -4.0729   -3.1745 H         1 UNK         0.0793 
     98 H98        23.0333   -3.6443   -1.9011 H         1 UNK         0.0793 
     99 H99        25.0070   -1.8352   -2.6083 H         1 UNK         0.3024 
    100 H100       26.0794    0.7121   -2.8419 H         1 UNK         0.1171 
    101 H101       25.9596    2.5201   -1.1354 H         1 UNK         0.0786 
    102 H102       24.6757    2.6810   -2.3169 H         1 UNK         0.0786 
    103 H103       24.3141    2.0353   -0.7216 H         1 UNK         0.0786 
    104 H104       25.9114    0.2447   -0.0289 H         1 UNK         0.2977 
    105 H105       27.5471   -1.2835   -5.4724 H         1 UNK         0.3127 
    106 H106       30.1788   -0.4773   -5.9611 H         1 UNK         0.0770 
    107 H107       28.1941    0.7182   -3.9592 H         1 UNK         0.0814 
    108 H108       29.9484    0.7951   -3.8632 H         1 UNK         0.0814 
    109 H109       29.1336   -0.7513   -3.7071 H         1 UNK         0.0814 
    110 H110       27.1891    1.2086   -6.7424 H         1 UNK         0.2983 
    111 H111       28.5494    3.7616   -7.3629 H         1 UNK         0.0947 
    112 H112       26.2405    4.5416   -7.8652 H         1 UNK         0.0806 
    113 H113       26.3294    3.8537   -6.2519 H         1 UNK         0.0806 
    114 H114       25.6021    2.9313   -7.5661 H         1 UNK         0.0806 
    115 H115       26.7798    1.0979   -8.9950 H         1 UNK         0.3000 
    116 H116       26.9013    2.1037  -11.6198 H         1 UNK         0.0850 
    117 H117       26.3038   -0.2426  -12.2647 H         1 UNK         0.0810 
    118 H118       25.3387    0.3191  -10.9083 H         1 UNK         0.0810 
    119 H119       26.6783   -0.7919  -10.6357 H         1 UNK         0.0810 
    120 H120       29.1490   -0.1765   -9.9576 H         1 UNK         0.3040 
    121 H121       30.9907   -0.2130  -12.2576 H         1 UNK         0.0766 
    122 H122       31.1952   -1.4204   -9.4516 H         1 UNK         0.0812 
    123 H123       32.3100   -1.7213  -10.7758 H         1 UNK         0.0812 
    124 H124       30.6420   -2.2603  -10.8961 H         1 UNK         0.0812 
    125 H125       30.3949    1.9113   -9.6978 H         1 UNK         0.3205 
    126 H126       31.3713    3.5963   -8.6846 H         1 UNK         0.0754 
    127 H127       32.9993    4.9761   -9.9147 H         1 UNK         0.0769 
    128 H128       31.7793    4.3837  -11.0283 H         1 UNK         0.0769 
    129 H129       33.3810    3.6454  -10.9970 H         1 UNK         0.0769 
    130 H130       32.3040    0.8575   -8.0409 H         1 UNK         0.2981 
    131 H131       35.0597    1.1979   -7.1132 H         1 UNK         0.0541 
    132 H132       31.9660    1.9312   -5.7176 H         1 UNK         0.3459 
    133 H133       32.5491    1.9622   -4.0668 H         1 UNK         0.3459 
    134 H134       34.9709   -1.1796   -6.5460 H         1 UNK         0.0612 
    135 H135       34.4896   -0.9102   -8.1903 H         1 UNK         0.0612 
    136 H136       33.4724   -3.6208   -5.8619 H         1 UNK         0.0624 
    137 H137       33.7820   -2.2090   -4.8791 H         1 UNK         0.0624 
@<TRIPOS>BOND
     1    1    2 1    
     2    1   72 1    
     3    1   73 1    
     4    1   74 1    
     5    2    3 2    
     6    2    4 am   BACKBONE|DICT|INTERRES
     7    4    5 1    
     8    4   75 1    
     9    5    6 1    
    10    5   35 1    
    11    5   76 1    
    12    6    7 1    
    13    6   77 1    
    14    6   78 1    
    15    7    8 1    
    16    8    9 1    
    17    8   79 1    
    18    8   80 1    
    19    9   10 ar   
    20    9   14 ar   
    21   10   11 ar   
    22   10   81 1    
    23   11   12 ar   
    24   11   71 1    
    25   12   13 ar   
    26   12   82 1    
    27   13   14 ar   
    28   13   15 1    
    29   14   83 1    
    30   15   16 1    
    31   15   84 1    
    32   15   85 1    
    33   16   17 1    
    34   17   18 1    
    35   17   86 1    
    36   17   87 1    
    37   18   19 1    
    38   18   37 1    
    39   18   88 1    
    40   19   20 am   BACKBONE|DICT|INTERRES
    41   19   89 1    
    42   20   21 2    
    43   20   22 1    
    44   22   23 1    
    45   22   24 1    
    46   22   90 1    
    47   23   91 1    
    48   23   92 1    
    49   23   93 1    
    50   24   25 am   BACKBONE|DICT|INTERRES
    51   24   94 1    
    52   25   26 2    
    53   25   27 1    
    54   27   28 1    
    55   27   29 1    
    56   27   95 1    
    57   28   96 1    
    58   28   97 1    
    59   28   98 1    
    60   29   30 am   BACKBONE|DICT|INTERRES
    61   29   99 1    
    62   30   31 2    
    63   30   32 1    
    64   32   33 1    
    65   32   34 1    
    66   32  100 1    
    67   33  101 1    
    68   33  102 1    
    69   33  103 1    
    70   34   35 am   BACKBONE|DICT|INTERRES
    71   34  104 1    
    72   35   36 2    
    73   37   38 2    
    74   37   39 am   BACKBONE|DICT|INTERRES
    75   39   40 1    
    76   39  105 1    
    77   40   41 1    
    78   40   42 1    
    79   40  106 1    
    80   41  107 1    
    81   41  108 1    
    82   41  109 1    
    83   42   43 2    
    84   42   44 am   BACKBONE|DICT|INTERRES
    85   44   45 1    
    86   44  110 1    
    87   45   46 1    
    88   45   47 1    
    89   45  111 1    
    90   46  112 1    
    91   46  113 1    
    92   46  114 1    
    93   47   48 2    
    94   47   49 am   BACKBONE|DICT|INTERRES
    95   49   50 1    
    96   49  115 1    
    97   50   51 1    
    98   50   52 1    
    99   50  116 1    
   100   51  117 1    
   101   51  118 1    
   102   51  119 1    
   103   52   53 2    
   104   52   54 am   BACKBONE|DICT|INTERRES
   105   54   55 1    
   106   54  120 1    
   107   55   56 1    
   108   55   57 1    
   109   55  121 1    
   110   56  122 1    
   111   56  123 1    
   112   56  124 1    
   113   57   58 2    
   114   57   59 am   BACKBONE|DICT|INTERRES
   115   59   60 1    
   116   59  125 1    
   117   60   61 1    
   118   60   62 1    
   119   60  126 1    
   120   61  127 1    
   121   61  128 1    
   122   61  129 1    
   123   62   63 2    
   124   62   64 am   BACKBONE|DICT|INTERRES
   125   64   65 1    
   126   64  130 1    
   127   65   66 1    
   128   65   69 1    
   129   65  131 1    
   130   66   67 am   BACKBONE|DICT|INTERRES
   131   66   68 2    
   132   67  132 1    
   133   67  133 1    
   134   69   70 1    
   135   69  134 1    
   136   69  135 1    
   137   70   71 1    
   138   71  136 1    
   139   71  137 1    
@<TRIPOS>SUBSTRUCTURE
     1 UNK         1 GROUP             0       ****    0 ROOT    
