@<TRIPOS>MOLECULE
3R137
137   139    1
SMALL
USER_CHARGES


@<TRIPOS>ATOM
      1 CA         25.3282   -6.6704   -7.1851 C.3       0 UNK        -0.2020 
      2 C          25.0907   -6.1756   -5.7663 C.2       0 UNK         0.4855 
      3 O          24.2973   -6.7688   -5.0356 O.2       0 UNK        -0.5197 
      4 N          25.7726   -5.0913   -5.3717 N.am      1 UNK        -0.4892 
      5 CA         25.6640   -4.4673   -4.0439 C.3       1 UNK         0.0835 
      6 C6         26.8480   -3.4959   -3.7833 C.3       12 UNK        -0.0855 
      7 S7         27.4431   -3.5470   -2.0611 S.3       12 UNK        -0.2931 
      8 C8         28.9821   -4.5068   -2.2395 C.3       12 UNK         0.0378 
      9 C9         30.1153   -3.6527   -2.7904 C.ar      12 UNK        -0.0802 
     10 C10        30.4399   -3.6846   -4.1504 C.ar      12 UNK        -0.0944 
     11 C11        31.4717   -2.8870   -4.6537 C.ar      12 UNK        -0.0787 
     12 C12        32.1970   -2.0683   -3.7820 C.ar      12 UNK        -0.0862 
     13 C13        31.8741   -2.0191   -2.4226 C.ar      12 UNK        -0.0733 
     14 C14        30.8414   -2.8238   -1.9315 C.ar      12 UNK        -0.0832 
     15 C15        32.6179   -1.0772   -1.4867 C.3       12 UNK         0.0240 
     16 S16        31.5036    0.1650   -0.7527 S.3       12 UNK        -0.2522 
     17 C17        31.0866    1.2157   -2.1891 C.3       12 UNK        -0.0967 
     18 CA         29.8620    0.7213   -3.0140 C.3       5 UNK         0.0660 
     19 N          28.6919    0.3688   -2.2039 N.am      5 UNK        -0.4015 
     20 C          27.9199    1.2020   -1.4955 C.2       4 UNK         0.4946 
     21 O          28.1092    2.4153   -1.3861 O.2       4 UNK        -0.5353 
     22 CA         26.6913    0.5573   -0.8316 C.3       4 UNK         0.0277 
     23 CB         26.4926    1.0766    0.6034 C.3       4 UNK        -0.1981 
     24 N          25.4547    0.7627   -1.5944 N.am      4 UNK        -0.4209 
     25 C          25.2501    0.4328   -2.8772 C.2       3 UNK         0.4942 
     26 O          26.1179   -0.0079   -3.6373 O.2       3 UNK        -0.5208 
     27 CA         23.8249    0.5967   -3.4085 C.3       3 UNK         0.0250 
     28 CB         23.6890    1.8459   -4.2932 C.3       3 UNK        -0.1990 
     29 N          23.5390   -0.5990   -4.1892 N.am      3 UNK        -0.4232 
     30 C          22.3793   -1.2630   -4.2111 C.2       2 UNK         0.4993 
     31 O          21.3441   -0.8577   -3.6807 O.2       2 UNK        -0.5286 
     32 CA         22.3746   -2.6235   -4.9324 C.3       2 UNK         0.0209 
     33 CB         21.9156   -2.4554   -6.3902 C.3       2 UNK        -0.1931 
     34 N          23.6707   -3.3130   -4.9162 N.am      2 UNK        -0.4546 
     35 C          24.3001   -3.7719   -3.8216 C.2       1 UNK         0.5154 
     36 O          23.8442   -3.6705   -2.6821 O.2       1 UNK        -0.5181 
     37 C          29.5136    1.6732   -4.1829 C.2       5 UNK         0.5014 
     38 O          30.3522    2.4863   -4.5753 O.2       5 UNK        -0.5248 
     39 N          28.2927    1.5626   -4.7256 N.am      6 UNK        -0.4434 
     40 CA         27.7857    2.4185   -5.8005 C.3       6 UNK         0.0363 
     41 CB         27.0881    3.6484   -5.1876 C.3       6 UNK        -0.1936 
     42 C          26.8812    1.6515   -6.7795 C.2       6 UNK         0.5081 
     43 O          26.1133    2.2789   -7.5097 O.2       6 UNK        -0.5248 
     44 N          26.9774    0.3137   -6.7948 N.am      7 UNK        -0.4718 
     45 CA         26.2097   -0.5598   -7.6907 C.3       7 UNK         0.0273 
     46 CB         26.3049   -2.0062   -7.1856 C.3       7 UNK        -0.1935 
     47 C          26.6537   -0.4762   -9.1625 C.2       7 UNK         0.5018 
     48 O          25.8509   -0.7591  -10.0527 O.2       7 UNK        -0.5186 
     49 N          27.9124   -0.0899   -9.3890 N.am      8 UNK        -0.4240 
     50 CA         28.5267    0.1373  -10.6900 C.3       8 UNK         0.0235 
     51 CB         29.0509   -1.1946  -11.2583 C.3       8 UNK        -0.2000 
     52 C          29.6713    1.1342  -10.4930 C.2       8 UNK         0.4941 
     53 O          30.1730    1.2677   -9.3737 O.2       8 UNK        -0.5273 
     54 N          30.1084    1.7765  -11.5851 N.am      9 UNK        -0.4262 
     55 CA         31.2374    2.7187  -11.6004 C.3       9 UNK         0.0264 
     56 CB         31.3743    3.3343  -13.0022 C.3       9 UNK        -0.1955 
     57 C          32.5720    2.0921  -11.1529 C.2       9 UNK         0.5031 
     58 O          33.4021    2.7855  -10.5634 O.2       9 UNK        -0.5390 
     59 N          32.7263    0.7813  -11.3906 N.am      10 UNK        -0.4204 
     60 CA         33.8443   -0.0462  -10.9319 C.3       10 UNK         0.0237 
     61 CB         33.7077   -1.4518  -11.5403 C.3       10 UNK        -0.1985 
     62 C          33.9754   -0.1383   -9.3989 C.2       10 UNK         0.4970 
     63 O          35.0731   -0.4230   -8.9182 O.2       10 UNK        -0.4914 
     64 N          32.8823    0.1056   -8.6614 N.am      11 UNK        -0.4285 
     65 CA         32.8796    0.1786   -7.1938 C.3       11 UNK         0.1007 
     66 C          33.4539    1.5087   -6.6240 C.2       11 UNK         0.5703 
     67 N          33.7090    2.5334   -7.4318 N.am      11 UNK        -0.7361 
     68 O          33.7009    1.5999   -5.4240 O.2       11 UNK        -0.4986 
     69 C69        31.4823   -0.1306   -6.5946 C.3       12 UNK        -0.0947 
     70 S70        30.7938   -1.7434   -7.1023 S.3       12 UNK        -0.2240 
     71 C71        31.8035   -2.9181   -6.1388 C.3       12 UNK         0.0194 
     72 H72        25.7085   -7.6914   -7.1671 H         1 UNK         0.0906 
     73 H73        24.3935   -6.6652   -7.7452 H         1 UNK         0.0906 
     74 H74        26.0472   -6.0506   -7.7204 H         1 UNK         0.0906 
     75 H75        26.4295   -4.6670   -6.0105 H         1 UNK         0.3140 
     76 H76        25.7168   -5.2819   -3.3174 H         1 UNK         0.1085 
     77 H77        27.6831   -3.7294   -4.4417 H         1 UNK         0.0836 
     78 H78        26.5906   -2.4653   -4.0224 H         1 UNK         0.0836 
     79 H79        29.2657   -4.9000   -1.2620 H         1 UNK         0.0731 
     80 H80        28.8050   -5.3761   -2.8751 H         1 UNK         0.0731 
     81 H81        29.8875   -4.3260   -4.8230 H         1 UNK         0.1312 
     82 H82        32.9965   -1.4500   -4.1674 H         1 UNK         0.1406 
     83 H83        30.5868   -2.7852   -0.8807 H         1 UNK         0.1631 
     84 H84        33.4361   -0.5707   -2.0013 H         1 UNK         0.0717 
     85 H85        33.0722   -1.6608   -0.6850 H         1 UNK         0.0717 
     86 H86        30.8982    2.2226   -1.8120 H         1 UNK         0.0934 
     87 H87        31.9679    1.2971   -2.8289 H         1 UNK         0.0934 
     88 H88        30.1472   -0.2089   -3.5017 H         1 UNK         0.0739 
     89 H89        28.4158   -0.6023   -2.2528 H         1 UNK         0.3093 
     90 H90        26.8593   -0.5205   -0.7711 H         1 UNK         0.0818 
     91 H91        25.6925    0.5405    1.1141 H         1 UNK         0.0819 
     92 H92        27.3994    0.9420    1.1947 H         1 UNK         0.0819 
     93 H93        26.2492    2.1398    0.6192 H         1 UNK         0.0819 
     94 H94        24.6793    1.1457   -1.0733 H         1 UNK         0.3041 
     95 H95        23.1338    0.6690   -2.5657 H         1 UNK         0.0784 
     96 H96        22.6689    1.9578   -4.6608 H         1 UNK         0.0793 
     97 H97        23.9343    2.7502   -3.7351 H         1 UNK         0.0793 
     98 H98        24.3498    1.8005   -5.1591 H         1 UNK         0.0793 
     99 H99        24.3554   -1.0206   -4.6110 H         1 UNK         0.3024 
    100 H100       21.6541   -3.2598   -4.4134 H         1 UNK         0.1171 
    101 H101       22.6143   -1.8479   -6.9671 H         1 UNK         0.0786 
    102 H102       20.9417   -1.9659   -6.4385 H         1 UNK         0.0786 
    103 H103       21.8154   -3.4195   -6.8893 H         1 UNK         0.0786 
    104 H104       24.1001   -3.4898   -5.8119 H         1 UNK         0.2977 
    105 H105       27.6229    0.9075   -4.3235 H         1 UNK         0.3127 
    106 H106       28.6227    2.7708   -6.4074 H         1 UNK         0.0770 
    107 H107       26.2483    3.3585   -4.5570 H         1 UNK         0.0814 
    108 H108       26.7072    4.3180   -5.9596 H         1 UNK         0.0814 
    109 H109       27.7786    4.2272   -4.5740 H         1 UNK         0.0814 
    110 H110       27.6374   -0.1319   -6.1745 H         1 UNK         0.2983 
    111 H111       25.1623   -0.2514   -7.6509 H         1 UNK         0.0947 
    112 H112       25.7399   -2.6834   -7.8279 H         1 UNK         0.0806 
    113 H113       25.8927   -2.0874   -6.1834 H         1 UNK         0.0806 
    114 H114       27.3371   -2.3591   -7.1611 H         1 UNK         0.0806 
    115 H115       28.5025    0.1672   -8.6070 H         1 UNK         0.3000 
    116 H116       27.7916    0.5744  -11.3694 H         1 UNK         0.0850 
    117 H117       29.7968   -1.6453  -10.6014 H         1 UNK         0.0810 
    118 H118       28.2433   -1.9154  -11.3874 H         1 UNK         0.0810 
    119 H119       29.5145   -1.0538  -12.2353 H         1 UNK         0.0810 
    120 H120       29.6446    1.6110  -12.4676 H         1 UNK         0.3040 
    121 H121       31.0052    3.5201  -10.8957 H         1 UNK         0.0766 
    122 H122       30.4680    3.8656  -13.2935 H         1 UNK         0.0812 
    123 H123       31.5791    2.5766  -13.7597 H         1 UNK         0.0812 
    124 H124       32.1930    4.0549  -13.0330 H         1 UNK         0.0812 
    125 H125       31.9873    0.3054  -11.8863 H         1 UNK         0.3205 
    126 H126       34.7644    0.4053  -11.3087 H         1 UNK         0.0754 
    127 H127       34.5431   -2.0883  -11.2449 H         1 UNK         0.0769 
    128 H128       33.7018   -1.4153  -12.6300 H         1 UNK         0.0769 
    129 H129       32.7912   -1.9456  -11.2139 H         1 UNK         0.0769 
    130 H130       32.0123    0.3676   -9.1107 H         1 UNK         0.2981 
    131 H131       33.5583   -0.5936   -6.8300 H         1 UNK         0.0541 
    132 H132       34.0891    3.3804   -7.0409 H         1 UNK         0.3459 
    133 H133       33.5335    2.4735   -8.4268 H         1 UNK         0.3459 
    134 H134       30.7705    0.6418   -6.8883 H         1 UNK         0.0612 
    135 H135       31.5168   -0.0956   -5.5075 H         1 UNK         0.0612 
    136 H136       31.6273   -3.9214   -6.5294 H         1 UNK         0.0624 
    137 H137       32.8634   -2.7202   -6.2991 H         1 UNK         0.0624 
@<TRIPOS>BOND
     1    1    2 1    
     2    1   72 1    
     3    1   73 1    
     4    1   74 1    
     5    2    3 2    
     6    2    4 am   BACKBONE|DICT|INTERRES
     7    4    5 1    
     8    4   75 1    
     9    5    6 1    
    10    5   35 1    
    11    5   76 1    
    12    6    7 1    
    13    6   77 1    
    14    6   78 1    
    15    7    8 1    
    16    8    9 1    
    17    8   79 1    
    18    8   80 1    
    19    9   10 ar   
    20    9   14 ar   
    21   10   11 ar   
    22   10   81 1    
    23   11   12 ar   
    24   11   71 1    
    25   12   13 ar   
    26   12   82 1    
    27   13   14 ar   
    28   13   15 1    
    29   14   83 1    
    30   15   16 1    
    31   15   84 1    
    32   15   85 1    
    33   16   17 1    
    34   17   18 1    
    35   17   86 1    
    36   17   87 1    
    37   18   19 1    
    38   18   37 1    
    39   18   88 1    
    40   19   20 am   BACKBONE|DICT|INTERRES
    41   19   89 1    
    42   20   21 2    
    43   20   22 1    
    44   22   23 1    
    45   22   24 1    
    46   22   90 1    
    47   23   91 1    
    48   23   92 1    
    49   23   93 1    
    50   24   25 am   BACKBONE|DICT|INTERRES
    51   24   94 1    
    52   25   26 2    
    53   25   27 1    
    54   27   28 1    
    55   27   29 1    
    56   27   95 1    
    57   28   96 1    
    58   28   97 1    
    59   28   98 1    
    60   29   30 am   BACKBONE|DICT|INTERRES
    61   29   99 1    
    62   30   31 2    
    63   30   32 1    
    64   32   33 1    
    65   32   34 1    
    66   32  100 1    
    67   33  101 1    
    68   33  102 1    
    69   33  103 1    
    70   34   35 am   BACKBONE|DICT|INTERRES
    71   34  104 1    
    72   35   36 2    
    73   37   38 2    
    74   37   39 am   BACKBONE|DICT|INTERRES
    75   39   40 1    
    76   39  105 1    
    77   40   41 1    
    78   40   42 1    
    79   40  106 1    
    80   41  107 1    
    81   41  108 1    
    82   41  109 1    
    83   42   43 2    
    84   42   44 am   BACKBONE|DICT|INTERRES
    85   44   45 1    
    86   44  110 1    
    87   45   46 1    
    88   45   47 1    
    89   45  111 1    
    90   46  112 1    
    91   46  113 1    
    92   46  114 1    
    93   47   48 2    
    94   47   49 am   BACKBONE|DICT|INTERRES
    95   49   50 1    
    96   49  115 1    
    97   50   51 1    
    98   50   52 1    
    99   50  116 1    
   100   51  117 1    
   101   51  118 1    
   102   51  119 1    
   103   52   53 2    
   104   52   54 am   BACKBONE|DICT|INTERRES
   105   54   55 1    
   106   54  120 1    
   107   55   56 1    
   108   55   57 1    
   109   55  121 1    
   110   56  122 1    
   111   56  123 1    
   112   56  124 1    
   113   57   58 2    
   114   57   59 am   BACKBONE|DICT|INTERRES
   115   59   60 1    
   116   59  125 1    
   117   60   61 1    
   118   60   62 1    
   119   60  126 1    
   120   61  127 1    
   121   61  128 1    
   122   61  129 1    
   123   62   63 2    
   124   62   64 am   BACKBONE|DICT|INTERRES
   125   64   65 1    
   126   64  130 1    
   127   65   66 1    
   128   65   69 1    
   129   65  131 1    
   130   66   67 am   BACKBONE|DICT|INTERRES
   131   66   68 2    
   132   67  132 1    
   133   67  133 1    
   134   69   70 1    
   135   69  134 1    
   136   69  135 1    
   137   70   71 1    
   138   71  136 1    
   139   71  137 1    
@<TRIPOS>SUBSTRUCTURE
     1 UNK         1 GROUP             0       ****    0 ROOT    
