@<TRIPOS>MOLECULE
3R137
137   139    1
SMALL
USER_CHARGES


@<TRIPOS>ATOM
      1 CA         23.6404   -6.0855   -2.1438 C.3       0 UNK        -0.2020 
      2 C          24.9666   -5.4218   -2.4828 C.2       0 UNK         0.4855 
      3 O          25.2128   -5.1242   -3.6507 O.2       0 UNK        -0.5197 
      4 N          25.8116   -5.1871   -1.4676 N.am      1 UNK        -0.4892 
      5 CA         27.1249   -4.5337   -1.5517 C.3       1 UNK         0.0835 
      6 C6         28.1648   -5.3679   -2.3489 C.3       12 UNK        -0.0855 
      7 S7         29.8844   -4.9078   -1.9293 S.3       12 UNK        -0.2931 
      8 C8         30.4298   -4.1086   -3.4713 C.3       12 UNK         0.0378 
      9 C9         31.2508   -2.8570   -3.2014 C.ar      12 UNK        -0.0802 
     10 C10        32.6407   -2.8842   -3.3328 C.ar      12 UNK        -0.0944 
     11 C11        33.3953   -1.7232   -3.1426 C.ar      12 UNK        -0.0787 
     12 C12        32.7474   -0.5350   -2.7824 C.ar      12 UNK        -0.0862 
     13 C13        31.3576   -0.4976   -2.6176 C.ar      12 UNK        -0.0733 
     14 C14        30.6183   -1.6645   -2.8366 C.ar      12 UNK        -0.0832 
     15 C15        30.6796    0.7872   -2.1383 C.3       12 UNK         0.0240 
     16 S16        29.1029    1.1783   -2.9770 S.3       12 UNK        -0.2522 
     17 C17        29.6921    1.6916   -4.6196 C.3       12 UNK        -0.0967 
     18 CA         28.6810    1.4801   -5.7763 C.3       5 UNK         0.0660 
     19 N          28.0548    0.1548   -5.7900 N.am      5 UNK        -0.4015 
     20 C          27.4764   -0.3770   -6.8764 C.2       4 UNK         0.4946 
     21 O          27.4176    0.1963   -7.9643 O.2       4 UNK        -0.5353 
     22 CA         26.8279   -1.7579   -6.7179 C.3       4 UNK         0.0277 
     23 CB         27.8949   -2.8444   -6.5197 C.3       4 UNK        -0.1981 
     24 N          25.8664   -1.7822   -5.6142 N.am      4 UNK        -0.4209 
     25 C          24.6812   -1.1515   -5.6472 C.2       3 UNK         0.4942 
     26 O          24.2786   -0.5101   -6.6162 O.2       3 UNK        -0.5208 
     27 CA         23.7912   -1.2191   -4.3928 C.3       3 UNK         0.0250 
     28 CB         22.7982   -2.3873   -4.4991 C.3       3 UNK        -0.1990 
     29 N          24.5392   -1.3299   -3.1410 N.am      3 UNK        -0.4232 
     30 C          25.4273   -0.4325   -2.6919 C.2       2 UNK         0.4993 
     31 O          25.6901    0.6206   -3.2717 O.2       2 UNK        -0.5286 
     32 CA         26.1848   -0.7946   -1.4032 C.3       2 UNK         0.0209 
     33 CB         25.4856   -0.1791   -0.1810 C.3       2 UNK        -0.1931 
     34 N          26.3700   -2.2361   -1.1865 N.am      2 UNK        -0.4546 
     35 C          26.9818   -3.0748   -2.0371 C.2       1 UNK         0.5154 
     36 O          27.3671   -2.7403   -3.1596 O.2       1 UNK        -0.5181 
     37 C          27.6561    2.6239   -5.9198 C.2       5 UNK         0.5014 
     38 O          27.9751    3.6160   -6.5764 O.2       5 UNK        -0.5248 
     39 N          26.4290    2.4531   -5.4005 N.am      6 UNK        -0.4434 
     40 CA         25.3030    3.3665   -5.6402 C.3       6 UNK         0.0363 
     41 CB         24.1104    2.9724   -4.7561 C.3       6 UNK        -0.1936 
     42 C          24.8718    3.4341   -7.1189 C.2       6 UNK         0.5081 
     43 O          24.4561    4.4983   -7.5767 O.2       6 UNK        -0.5248 
     44 N          25.0095    2.3177   -7.8478 N.am      7 UNK        -0.4718 
     45 CA         24.7766    2.2175   -9.2926 C.3       7 UNK         0.0273 
     46 CB         24.3219    0.7854   -9.6243 C.3       7 UNK        -0.1935 
     47 C          26.0068    2.6114  -10.1361 C.2       7 UNK         0.5018 
     48 O          25.9498    2.4881  -11.3604 O.2       7 UNK        -0.5186 
     49 N          27.0900    3.0622   -9.4835 N.am      8 UNK        -0.4240 
     50 CA         28.3854    3.4532  -10.0521 C.3       8 UNK         0.0235 
     51 CB         28.2407    4.6460  -11.0220 C.3       8 UNK        -0.2000 
     52 C          29.1873    2.2822  -10.6560 C.2       8 UNK         0.4941 
     53 O          30.0808    2.5179  -11.4705 O.2       8 UNK        -0.5273 
     54 N          28.9114    1.0504  -10.2079 N.am      9 UNK        -0.4262 
     55 CA         29.6697   -0.1631  -10.5202 C.3       9 UNK         0.0264 
     56 CB         28.6829   -1.2783  -10.9142 C.3       9 UNK        -0.1955 
     57 C          30.5344   -0.5447   -9.3046 C.2       9 UNK         0.5031 
     58 O          30.5672   -1.7110   -8.9042 O.2       9 UNK        -0.5390 
     59 N          31.1836    0.4647   -8.7062 N.am      10 UNK        -0.4204 
     60 CA         31.9409    0.3686   -7.4609 C.3       10 UNK         0.0237 
     61 CB         32.4279    1.7668   -7.0438 C.3       10 UNK        -0.1985 
     62 C          33.1149   -0.6121   -7.5637 C.2       10 UNK         0.4970 
     63 O          33.9750   -0.4462   -8.4314 O.2       10 UNK        -0.4914 
     64 N          33.1102   -1.6025   -6.6663 N.am      11 UNK        -0.4285 
     65 CA         34.1247   -2.6570   -6.5318 C.3       11 UNK         0.1007 
     66 C          34.2082   -3.6429   -7.7372 C.2       11 UNK         0.5703 
     67 N          33.2165   -3.6945   -8.6206 N.am      11 UNK        -0.7361 
     68 O          35.1687   -4.4002   -7.8568 O.2       11 UNK        -0.4986 
     69 C69        35.5157   -2.1232   -6.0750 C.3       12 UNK        -0.0947 
     70 S70        35.4807   -0.8454   -4.7630 S.3       12 UNK        -0.2240 
     71 C71        34.9122   -1.7575   -3.2918 C.3       12 UNK         0.0194 
     72 H72        23.5484   -7.0313   -2.6770 H         1 UNK         0.0906 
     73 H73        23.5432   -6.2868   -1.0771 H         1 UNK         0.0906 
     74 H74        22.8128   -5.4436   -2.4447 H         1 UNK         0.0906 
     75 H75        25.5316   -5.4602   -0.5348 H         1 UNK         0.3140 
     76 H76        27.4842   -4.4770   -0.5223 H         1 UNK         0.1085 
     77 H77        27.9854   -5.3105   -3.4240 H         1 UNK         0.0836 
     78 H78        28.0540   -6.4232   -2.0951 H         1 UNK         0.0836 
     79 H79        29.5727   -3.8378   -4.0836 H         1 UNK         0.0731 
     80 H80        31.0012   -4.8282   -4.0597 H         1 UNK         0.0731 
     81 H81        33.1342   -3.8116   -3.5891 H         1 UNK         0.1312 
     82 H82        33.3345    0.3575   -2.6129 H         1 UNK         0.1406 
     83 H83        29.5469   -1.6476   -2.7074 H         1 UNK         0.1631 
     84 H84        31.3508    1.6407   -2.2467 H         1 UNK         0.0717 
     85 H85        30.4824    0.6876   -1.0703 H         1 UNK         0.0717 
     86 H86        30.0181    2.7325   -4.5692 H         1 UNK         0.0934 
     87 H87        30.5946    1.1200   -4.8308 H         1 UNK         0.0934 
     88 H88        29.2730    1.5366   -6.6921 H         1 UNK         0.0739 
     89 H89        28.0267   -0.3433   -4.9112 H         1 UNK         0.3093 
     90 H90        26.2887   -1.9820   -7.6410 H         1 UNK         0.0818 
     91 H91        28.5201   -2.6371   -5.6530 H         1 UNK         0.0819 
     92 H92        27.4445   -3.8276   -6.3829 H         1 UNK         0.0819 
     93 H93        28.5536   -2.9035   -7.3873 H         1 UNK         0.0819 
     94 H94        26.1518   -2.2610   -4.7650 H         1 UNK         0.3041 
     95 H95        23.2187   -0.2909   -4.3480 H         1 UNK         0.0784 
     96 H96        22.1954   -2.3036   -5.4046 H         1 UNK         0.0793 
     97 H97        23.3099   -3.3496   -4.5378 H         1 UNK         0.0793 
     98 H98        22.1099   -2.4045   -3.6539 H         1 UNK         0.0793 
     99 H99        24.4144   -2.1780   -2.6085 H         1 UNK         0.3024 
    100 H100       27.1785   -0.3524   -1.4837 H         1 UNK         0.1171 
    101 H101       26.0689   -0.3279    0.7279 H         1 UNK         0.0786 
    102 H102       25.3571    0.8971   -0.3071 H         1 UNK         0.0786 
    103 H103       24.4961   -0.6094   -0.0217 H         1 UNK         0.0786 
    104 H104       26.0494   -2.6004   -0.3006 H         1 UNK         0.2977 
    105 H105       26.2457    1.6510   -4.8005 H         1 UNK         0.3127 
    106 H106       25.6242    4.3684   -5.3474 H         1 UNK         0.0770 
    107 H107       23.7536    1.9694   -4.9902 H         1 UNK         0.0814 
    108 H108       23.2742    3.6581   -4.8987 H         1 UNK         0.0814 
    109 H109       24.3736    2.9984   -3.6986 H         1 UNK         0.0814 
    110 H110       25.3349    1.4727   -7.3930 H         1 UNK         0.2983 
    111 H111       23.9701    2.8990   -9.5714 H         1 UNK         0.0947 
    112 H112       24.0871    0.6795  -10.6841 H         1 UNK         0.0806 
    113 H113       23.4238    0.5170   -9.0680 H         1 UNK         0.0806 
    114 H114       25.0935    0.0525   -9.3857 H         1 UNK         0.0806 
    115 H115       27.0350    3.1174   -8.4731 H         1 UNK         0.3000 
    116 H116       28.9778    3.8013   -9.2047 H         1 UNK         0.0850 
    117 H117       29.2171    5.0446  -11.3002 H         1 UNK         0.0810 
    118 H118       27.6784    5.4615  -10.5673 H         1 UNK         0.0810 
    119 H119       27.7347    4.3612  -11.9447 H         1 UNK         0.0810 
    120 H120       28.2038    0.9350   -9.4829 H         1 UNK         0.3040 
    121 H121       30.3450    0.0067  -11.3610 H         1 UNK         0.0766 
    122 H122       28.0715   -0.9820  -11.7666 H         1 UNK         0.0812 
    123 H123       28.0112   -1.5301  -10.0923 H         1 UNK         0.0812 
    124 H124       29.2128   -2.1892  -11.1952 H         1 UNK         0.0812 
    125 H125       31.1434    1.3736   -9.1431 H         1 UNK         0.3205 
    126 H126       31.2497    0.0002   -6.7016 H         1 UNK         0.0754 
    127 H127       32.9555    1.7249   -6.0896 H         1 UNK         0.0769 
    128 H128       31.5994    2.4651   -6.9261 H         1 UNK         0.0769 
    129 H129       33.1171    2.1878   -7.7772 H         1 UNK         0.0769 
    130 H130       32.3523   -1.6534   -6.0019 H         1 UNK         0.2981 
    131 H131       33.7597   -3.2921   -5.7294 H         1 UNK         0.0541 
    132 H132       32.4195   -3.0766   -8.5419 H         1 UNK         0.3459 
    133 H133       33.2748   -4.3443   -9.3882 H         1 UNK         0.3459 
    134 H134       36.1416   -2.9478   -5.7298 H         1 UNK         0.0612 
    135 H135       36.0398   -1.6875   -6.9272 H         1 UNK         0.0612 
    136 H136       35.3618   -1.3028   -2.4081 H         1 UNK         0.0624 
    137 H137       35.2837   -2.7828   -3.3281 H         1 UNK         0.0624 
@<TRIPOS>BOND
     1    1    2 1    
     2    1   72 1    
     3    1   73 1    
     4    1   74 1    
     5    2    3 2    
     6    2    4 am   BACKBONE|DICT|INTERRES
     7    4    5 1    
     8    4   75 1    
     9    5    6 1    
    10    5   35 1    
    11    5   76 1    
    12    6    7 1    
    13    6   77 1    
    14    6   78 1    
    15    7    8 1    
    16    8    9 1    
    17    8   79 1    
    18    8   80 1    
    19    9   10 ar   
    20    9   14 ar   
    21   10   11 ar   
    22   10   81 1    
    23   11   12 ar   
    24   11   71 1    
    25   12   13 ar   
    26   12   82 1    
    27   13   14 ar   
    28   13   15 1    
    29   14   83 1    
    30   15   16 1    
    31   15   84 1    
    32   15   85 1    
    33   16   17 1    
    34   17   18 1    
    35   17   86 1    
    36   17   87 1    
    37   18   19 1    
    38   18   37 1    
    39   18   88 1    
    40   19   20 am   BACKBONE|DICT|INTERRES
    41   19   89 1    
    42   20   21 2    
    43   20   22 1    
    44   22   23 1    
    45   22   24 1    
    46   22   90 1    
    47   23   91 1    
    48   23   92 1    
    49   23   93 1    
    50   24   25 am   BACKBONE|DICT|INTERRES
    51   24   94 1    
    52   25   26 2    
    53   25   27 1    
    54   27   28 1    
    55   27   29 1    
    56   27   95 1    
    57   28   96 1    
    58   28   97 1    
    59   28   98 1    
    60   29   30 am   BACKBONE|DICT|INTERRES
    61   29   99 1    
    62   30   31 2    
    63   30   32 1    
    64   32   33 1    
    65   32   34 1    
    66   32  100 1    
    67   33  101 1    
    68   33  102 1    
    69   33  103 1    
    70   34   35 am   BACKBONE|DICT|INTERRES
    71   34  104 1    
    72   35   36 2    
    73   37   38 2    
    74   37   39 am   BACKBONE|DICT|INTERRES
    75   39   40 1    
    76   39  105 1    
    77   40   41 1    
    78   40   42 1    
    79   40  106 1    
    80   41  107 1    
    81   41  108 1    
    82   41  109 1    
    83   42   43 2    
    84   42   44 am   BACKBONE|DICT|INTERRES
    85   44   45 1    
    86   44  110 1    
    87   45   46 1    
    88   45   47 1    
    89   45  111 1    
    90   46  112 1    
    91   46  113 1    
    92   46  114 1    
    93   47   48 2    
    94   47   49 am   BACKBONE|DICT|INTERRES
    95   49   50 1    
    96   49  115 1    
    97   50   51 1    
    98   50   52 1    
    99   50  116 1    
   100   51  117 1    
   101   51  118 1    
   102   51  119 1    
   103   52   53 2    
   104   52   54 am   BACKBONE|DICT|INTERRES
   105   54   55 1    
   106   54  120 1    
   107   55   56 1    
   108   55   57 1    
   109   55  121 1    
   110   56  122 1    
   111   56  123 1    
   112   56  124 1    
   113   57   58 2    
   114   57   59 am   BACKBONE|DICT|INTERRES
   115   59   60 1    
   116   59  125 1    
   117   60   61 1    
   118   60   62 1    
   119   60  126 1    
   120   61  127 1    
   121   61  128 1    
   122   61  129 1    
   123   62   63 2    
   124   62   64 am   BACKBONE|DICT|INTERRES
   125   64   65 1    
   126   64  130 1    
   127   65   66 1    
   128   65   69 1    
   129   65  131 1    
   130   66   67 am   BACKBONE|DICT|INTERRES
   131   66   68 2    
   132   67  132 1    
   133   67  133 1    
   134   69   70 1    
   135   69  134 1    
   136   69  135 1    
   137   70   71 1    
   138   71  136 1    
   139   71  137 1    
@<TRIPOS>SUBSTRUCTURE
     1 UNK         1 GROUP             0       ****    0 ROOT    
