@<TRIPOS>MOLECULE
3R137
137   139    1
SMALL
USER_CHARGES


@<TRIPOS>ATOM
      1 CA         25.6218   -8.3710   -2.7640 C.3       0 UNK        -0.2020 
      2 C          26.3630   -7.4139   -3.6934 C.2       0 UNK         0.4855 
      3 O          26.2819   -7.5690   -4.9098 O.2       0 UNK        -0.5197 
      4 N          27.0938   -6.4136   -3.1811 N.am      1 UNK        -0.4892 
      5 CA         27.2672   -6.0725   -1.7612 C.3       1 UNK         0.0835 
      6 C6         28.6063   -5.3275   -1.5268 C.3       12 UNK        -0.0855 
      7 S7         28.7517   -3.7292   -2.4087 S.3       12 UNK        -0.2931 
      8 C8         29.2123   -2.6145   -1.0421 C.3       12 UNK         0.0378 
      9 C9         29.8338   -1.3236   -1.5570 C.ar      12 UNK        -0.0802 
     10 C10        31.0409   -1.3717   -2.2610 C.ar      12 UNK        -0.0944 
     11 C11        31.6346   -0.2008   -2.7376 C.ar      12 UNK        -0.0787 
     12 C12        31.0338    1.0301   -2.4691 C.ar      12 UNK        -0.0862 
     13 C13        29.8194    1.0955   -1.7812 C.ar      12 UNK        -0.0733 
     14 C14        29.2268   -0.0852   -1.3187 C.ar      12 UNK        -0.0832 
     15 C15        29.1577    2.4429   -1.5303 C.3       12 UNK         0.0240 
     16 S16        28.0110    2.9039   -2.8705 S.3       12 UNK        -0.2522 
     17 C17        29.1452    3.4048   -4.2236 C.3       12 UNK        -0.0967 
     18 CA         28.9850    2.5879   -5.5358 C.3       5 UNK         0.0660 
     19 N          28.9008    1.1464   -5.2912 N.am      5 UNK        -0.4015 
     20 C          28.8091    0.1897   -6.2255 C.2       4 UNK         0.4946 
     21 O          28.9512    0.3910   -7.4312 O.2       4 UNK        -0.5353 
     22 CA         28.4360   -1.2242   -5.7411 C.3       4 UNK         0.0277 
     23 CB         29.6866   -2.1037   -5.6020 C.3       4 UNK        -0.1981 
     24 N          27.6607   -1.2307   -4.4910 N.am      4 UNK        -0.4209 
     25 C          26.4439   -0.6784   -4.3708 C.2       3 UNK         0.4942 
     26 O          25.8377   -0.1702   -5.3153 O.2       3 UNK        -0.5208 
     27 CA         25.7989   -0.6981   -2.9811 C.3       3 UNK         0.0250 
     28 CB         24.7845    0.4538   -2.8027 C.3       3 UNK        -0.1990 
     29 N          25.1637   -1.9975   -2.7900 N.am      3 UNK        -0.4232 
     30 C          24.6537   -2.4611   -1.6412 C.2       2 UNK         0.4993 
     31 O          24.6486   -1.8363   -0.5802 O.2       2 UNK        -0.5286 
     32 CA         24.0925   -3.8898   -1.6809 C.3       2 UNK         0.0209 
     33 CB         22.9205   -4.0226   -2.6700 C.3       2 UNK        -0.1931 
     34 N          25.1556   -4.8285   -2.0358 N.am      2 UNK        -0.4546 
     35 C          26.0782   -5.2803   -1.1744 C.2       1 UNK         0.5154 
     36 O          26.0276   -5.0864    0.0410 O.2       1 UNK        -0.5181 
     37 C          27.7978    3.1020   -6.3777 C.2       5 UNK         0.5014 
     38 O          28.0134    3.7187   -7.4233 O.2       5 UNK        -0.5248 
     39 N          26.5726    2.8097   -5.9165 N.am      6 UNK        -0.4434 
     40 CA         25.3135    3.1952   -6.5571 C.3       6 UNK         0.0363 
     41 CB         24.1411    2.9203   -5.6032 C.3       6 UNK        -0.1936 
     42 C          25.0891    2.4952   -7.9054 C.2       6 UNK         0.5081 
     43 O          24.5002    3.0958   -8.8042 O.2       6 UNK        -0.5248 
     44 N          25.6117    1.2707   -8.0561 N.am      7 UNK        -0.4718 
     45 CA         25.6281    0.4875   -9.2975 C.3       7 UNK         0.0273 
     46 CB         25.8534   -0.9939   -8.9430 C.3       7 UNK        -0.1935 
     47 C          26.6543    1.0026  -10.3348 C.2       7 UNK         0.5018 
     48 O          27.3282    0.1970  -10.9779 O.2       7 UNK        -0.5186 
     49 N          26.7473    2.3323  -10.4835 N.am      8 UNK        -0.4240 
     50 CA         27.6322    3.0867  -11.3777 C.3       8 UNK         0.0235 
     51 CB         27.2075    2.8873  -12.8488 C.3       8 UNK        -0.2000 
     52 C          29.1297    2.8054  -11.1387 C.2       8 UNK         0.4941 
     53 O          29.8828    2.6671  -12.1048 O.2       8 UNK        -0.5273 
     54 N          29.5292    2.7424   -9.8575 N.am      9 UNK        -0.4262 
     55 CA         30.8866    2.4701   -9.3668 C.3       9 UNK         0.0264 
     56 CB         31.8255    3.6567   -9.6702 C.3       9 UNK        -0.1955 
     57 C          31.4379    1.1202   -9.8672 C.2       9 UNK         0.5031 
     58 O          32.4730    1.0737  -10.5349 O.2       9 UNK        -0.5390 
     59 N          30.7318    0.0391   -9.5168 N.am      10 UNK        -0.4204 
     60 CA         31.0740   -1.3489   -9.8464 C.3       10 UNK         0.0237 
     61 CB         29.7953   -2.2023   -9.7666 C.3       10 UNK        -0.1985 
     62 C          32.1926   -1.9443   -8.9648 C.2       10 UNK         0.4970 
     63 O          32.5486   -3.1074   -9.1589 O.2       10 UNK        -0.4914 
     64 N          32.7018   -1.1605   -8.0058 N.am      11 UNK        -0.4285 
     65 CA         33.7716   -1.4943   -7.0545 C.3       11 UNK         0.1007 
     66 C          35.0778   -1.9918   -7.7336 C.2       11 UNK         0.5703 
     67 N          35.7334   -2.9929   -7.1618 N.am      11 UNK        -0.7361 
     68 O          35.5240   -1.4476   -8.7422 O.2       11 UNK        -0.4986 
     69 C69        34.0804   -0.2856   -6.1317 C.3       12 UNK        -0.0947 
     70 S70        32.5991    0.3231   -5.2619 S.3       12 UNK        -0.2240 
     71 C71        32.9075   -0.2634   -3.5669 C.3       12 UNK         0.0194 
     72 H72        25.0433   -9.0911   -3.3424 H         1 UNK         0.0906 
     73 H73        26.3227   -8.9321   -2.1467 H         1 UNK         0.0906 
     74 H74        24.9272   -7.8379   -2.1162 H         1 UNK         0.0906 
     75 H75        27.5856   -5.8011   -3.8178 H         1 UNK         0.3140 
     76 H76        27.3229   -6.9999   -1.1881 H         1 UNK         0.1085 
     77 H77        29.4343   -5.9604   -1.8504 H         1 UNK         0.0836 
     78 H78        28.7647   -5.1775   -0.4570 H         1 UNK         0.0836 
     79 H79        29.9367   -3.1084   -0.3928 H         1 UNK         0.0731 
     80 H80        28.3297   -2.4142   -0.4320 H         1 UNK         0.0731 
     81 H81        31.5048   -2.3292   -2.4562 H         1 UNK         0.1312 
     82 H82        31.5106    1.9337   -2.8208 H         1 UNK         0.1406 
     83 H83        28.2999   -0.0353   -0.7635 H         1 UNK         0.1631 
     84 H84        29.9101    3.2232   -1.4047 H         1 UNK         0.0717 
     85 H85        28.6008    2.4095   -0.5926 H         1 UNK         0.0717 
     86 H86        30.1752    3.3295   -3.8809 H         1 UNK         0.0934 
     87 H87        29.0029    4.4713   -4.4113 H         1 UNK         0.0934 
     88 H88        29.8845    2.7508   -6.1317 H         1 UNK         0.0739 
     89 H89        28.8024    0.8772   -4.3231 H         1 UNK         0.3093 
     90 H90        27.8058   -1.6702   -6.5119 H         1 UNK         0.0818 
     91 H91        30.2579   -2.1240   -6.5298 H         1 UNK         0.0819 
     92 H92        30.3543   -1.7352   -4.8274 H         1 UNK         0.0819 
     93 H93        29.4256   -3.1341   -5.3619 H         1 UNK         0.0819 
     94 H94        28.0908   -1.6763   -3.6898 H         1 UNK         0.3041 
     95 H95        26.5871   -0.5830   -2.2376 H         1 UNK         0.0784 
     96 H96        25.2360    1.4153   -3.0489 H         1 UNK         0.0793 
     97 H97        23.9126    0.3250   -3.4448 H         1 UNK         0.0793 
     98 H98        24.4320    0.5265   -1.7743 H         1 UNK         0.0793 
     99 H99        25.1348   -2.5872   -3.6102 H         1 UNK         0.3024 
    100 H100       23.7182   -4.1290   -0.6823 H         1 UNK         0.1171 
    101 H101       22.4755   -5.0165   -2.6188 H         1 UNK         0.0786 
    102 H102       22.1325   -3.3049   -2.4371 H         1 UNK         0.0786 
    103 H103       23.2254   -3.8492   -3.7024 H         1 UNK         0.0786 
    104 H104       25.2844   -5.0399   -3.0148 H         1 UNK         0.2977 
    105 H105       26.4987    2.2607   -5.0720 H         1 UNK         0.3127 
    106 H106       25.3548    4.2700   -6.7465 H         1 UNK         0.0770 
    107 H107       24.0240    1.8545   -5.4060 H         1 UNK         0.0814 
    108 H108       23.2024    3.2745   -6.0312 H         1 UNK         0.0814 
    109 H109       24.2740    3.4293   -4.6484 H         1 UNK         0.0814 
    110 H110       26.0537    0.8469   -7.2482 H         1 UNK         0.2983 
    111 H111       24.6435    0.5713   -9.7624 H         1 UNK         0.0947 
    112 H112       26.8648   -1.1638   -8.5752 H         1 UNK         0.0806 
    113 H113       25.7168   -1.6303   -9.8182 H         1 UNK         0.0806 
    114 H114       25.1537   -1.3360   -8.1801 H         1 UNK         0.0806 
    115 H115       26.1154    2.8887   -9.9157 H         1 UNK         0.3000 
    116 H116       27.4835    4.1396  -11.1334 H         1 UNK         0.0850 
    117 H117       27.7777    3.5378  -13.5131 H         1 UNK         0.0810 
    118 H118       26.1533    3.1236  -12.9934 H         1 UNK         0.0810 
    119 H119       27.3702    1.8611  -13.1802 H         1 UNK         0.0810 
    120 H120       28.8303    2.8841   -9.1339 H         1 UNK         0.3040 
    121 H121       30.8103    2.3863   -8.2824 H         1 UNK         0.0766 
    122 H122       31.4360    4.5859   -9.2543 H         1 UNK         0.0812 
    123 H123       31.9654    3.8013  -10.7420 H         1 UNK         0.0812 
    124 H124       32.8116    3.4941   -9.2335 H         1 UNK         0.0812 
    125 H125       29.9229    0.1734   -8.9070 H         1 UNK         0.3205 
    126 H126       31.4348   -1.3775  -10.8765 H         1 UNK         0.0754 
    127 H127       29.9957   -3.2434  -10.0228 H         1 UNK         0.0769 
    128 H128       29.0384   -1.8421  -10.4632 H         1 UNK         0.0769 
    129 H129       29.3598   -2.1880   -8.7677 H         1 UNK         0.0769 
    130 H130       32.3385   -0.2241   -7.9264 H         1 UNK         0.2981 
    131 H131       33.3861   -2.3054   -6.4337 H         1 UNK         0.0541 
    132 H132       35.3844   -3.4375   -6.3271 H         1 UNK         0.3459 
    133 H133       36.5918   -3.3170   -7.5794 H         1 UNK         0.3459 
    134 H134       34.8465   -0.5452   -5.3985 H         1 UNK         0.0612 
    135 H135       34.4876    0.5434   -6.7137 H         1 UNK         0.0612 
    136 H136       33.6820    0.3494   -3.1039 H         1 UNK         0.0624 
    137 H137       33.2900   -1.2846   -3.6033 H         1 UNK         0.0624 
@<TRIPOS>BOND
     1    1    2 1    
     2    1   72 1    
     3    1   73 1    
     4    1   74 1    
     5    2    3 2    
     6    2    4 am   BACKBONE|DICT|INTERRES
     7    4    5 1    
     8    4   75 1    
     9    5    6 1    
    10    5   35 1    
    11    5   76 1    
    12    6    7 1    
    13    6   77 1    
    14    6   78 1    
    15    7    8 1    
    16    8    9 1    
    17    8   79 1    
    18    8   80 1    
    19    9   10 ar   
    20    9   14 ar   
    21   10   11 ar   
    22   10   81 1    
    23   11   12 ar   
    24   11   71 1    
    25   12   13 ar   
    26   12   82 1    
    27   13   14 ar   
    28   13   15 1    
    29   14   83 1    
    30   15   16 1    
    31   15   84 1    
    32   15   85 1    
    33   16   17 1    
    34   17   18 1    
    35   17   86 1    
    36   17   87 1    
    37   18   19 1    
    38   18   37 1    
    39   18   88 1    
    40   19   20 am   BACKBONE|DICT|INTERRES
    41   19   89 1    
    42   20   21 2    
    43   20   22 1    
    44   22   23 1    
    45   22   24 1    
    46   22   90 1    
    47   23   91 1    
    48   23   92 1    
    49   23   93 1    
    50   24   25 am   BACKBONE|DICT|INTERRES
    51   24   94 1    
    52   25   26 2    
    53   25   27 1    
    54   27   28 1    
    55   27   29 1    
    56   27   95 1    
    57   28   96 1    
    58   28   97 1    
    59   28   98 1    
    60   29   30 am   BACKBONE|DICT|INTERRES
    61   29   99 1    
    62   30   31 2    
    63   30   32 1    
    64   32   33 1    
    65   32   34 1    
    66   32  100 1    
    67   33  101 1    
    68   33  102 1    
    69   33  103 1    
    70   34   35 am   BACKBONE|DICT|INTERRES
    71   34  104 1    
    72   35   36 2    
    73   37   38 2    
    74   37   39 am   BACKBONE|DICT|INTERRES
    75   39   40 1    
    76   39  105 1    
    77   40   41 1    
    78   40   42 1    
    79   40  106 1    
    80   41  107 1    
    81   41  108 1    
    82   41  109 1    
    83   42   43 2    
    84   42   44 am   BACKBONE|DICT|INTERRES
    85   44   45 1    
    86   44  110 1    
    87   45   46 1    
    88   45   47 1    
    89   45  111 1    
    90   46  112 1    
    91   46  113 1    
    92   46  114 1    
    93   47   48 2    
    94   47   49 am   BACKBONE|DICT|INTERRES
    95   49   50 1    
    96   49  115 1    
    97   50   51 1    
    98   50   52 1    
    99   50  116 1    
   100   51  117 1    
   101   51  118 1    
   102   51  119 1    
   103   52   53 2    
   104   52   54 am   BACKBONE|DICT|INTERRES
   105   54   55 1    
   106   54  120 1    
   107   55   56 1    
   108   55   57 1    
   109   55  121 1    
   110   56  122 1    
   111   56  123 1    
   112   56  124 1    
   113   57   58 2    
   114   57   59 am   BACKBONE|DICT|INTERRES
   115   59   60 1    
   116   59  125 1    
   117   60   61 1    
   118   60   62 1    
   119   60  126 1    
   120   61  127 1    
   121   61  128 1    
   122   61  129 1    
   123   62   63 2    
   124   62   64 am   BACKBONE|DICT|INTERRES
   125   64   65 1    
   126   64  130 1    
   127   65   66 1    
   128   65   69 1    
   129   65  131 1    
   130   66   67 am   BACKBONE|DICT|INTERRES
   131   66   68 2    
   132   67  132 1    
   133   67  133 1    
   134   69   70 1    
   135   69  134 1    
   136   69  135 1    
   137   70   71 1    
   138   71  136 1    
   139   71  137 1    
@<TRIPOS>SUBSTRUCTURE
     1 UNK         1 GROUP             0       ****    0 ROOT    
