@<TRIPOS>MOLECULE
3R137
137   139    1
SMALL
USER_CHARGES


@<TRIPOS>ATOM
      1 CA         29.9606   -0.3653    1.8165 C.3       0 UNK        -0.2020 
      2 C          28.5911   -0.5920    2.4527 C.2       0 UNK         0.4855 
      3 O          28.3352   -0.0701    3.5361 O.2       0 UNK        -0.5197 
      4 N          27.6790   -1.3449    1.8267 N.am      1 UNK        -0.4892 
      5 CA         27.8025   -1.9907    0.5194 C.3       1 UNK         0.0835 
      6 C6         28.5279   -3.3648    0.6040 C.3       12 UNK        -0.0855 
      7 S7         29.3458   -4.0095   -0.9075 S.3       12 UNK        -0.2931 
      8 C8         29.4974   -2.6208   -2.0866 C.3       12 UNK         0.0378 
      9 C9         30.0128   -3.1070   -3.4325 C.ar      12 UNK        -0.0802 
     10 C10        31.2542   -2.6865   -3.9184 C.ar      12 UNK        -0.0944 
     11 C11        31.7327   -3.1620   -5.1436 C.ar      12 UNK        -0.0787 
     12 C12        30.9549   -4.0571   -5.8884 C.ar      12 UNK        -0.0862 
     13 C13        29.7147   -4.4910   -5.4080 C.ar      12 UNK        -0.0733 
     14 C14        29.2465   -4.0000   -4.1869 C.ar      12 UNK        -0.0832 
     15 C15        28.9194   -5.5545   -6.1571 C.3       12 UNK         0.0240 
     16 S16        27.9561   -4.8951   -7.5536 S.3       12 UNK        -0.2522 
     17 C17        26.6456   -3.9348   -6.7167 C.3       12 UNK        -0.0967 
     18 CA         26.3790   -2.5787   -7.4123 C.3       5 UNK         0.0660 
     19 N          25.1615   -1.9318   -6.9216 N.am      5 UNK        -0.4015 
     20 C          24.5453   -0.9137   -7.5404 C.2       4 UNK         0.4946 
     21 O          24.9085   -0.4406   -8.6177 O.2       4 UNK        -0.5353 
     22 CA         23.3416   -0.2912   -6.8136 C.3       4 UNK         0.0277 
     23 CB         22.0738   -1.1302   -7.0406 C.3       4 UNK        -0.1981 
     24 N          23.5732   -0.1204   -5.3768 N.am      4 UNK        -0.4209 
     25 C          24.5012    0.6959   -4.8574 C.2       3 UNK         0.4942 
     26 O          25.2386    1.4122   -5.5316 O.2       3 UNK        -0.5208 
     27 CA         24.6640    0.6898   -3.3300 C.3       3 UNK         0.0250 
     28 CB         23.6731    1.6684   -2.6800 C.3       3 UNK        -0.1990 
     29 N          24.5355   -0.6285   -2.7001 N.am      3 UNK        -0.4232 
     30 C          25.2484   -1.7192   -3.0132 C.2       2 UNK         0.4993 
     31 O          26.0373   -1.7872   -3.9596 O.2       2 UNK        -0.5286 
     32 CA         25.1071   -2.9182   -2.0632 C.3       2 UNK         0.0209 
     33 CB         25.0687   -4.2512   -2.8315 C.3       2 UNK        -0.1931 
     34 N          26.2435   -2.9184   -1.1431 N.am      2 UNK        -0.4546 
     35 C          26.4024   -2.0602   -0.1270 C.2       1 UNK         0.5154 
     36 O          25.5014   -1.3199    0.2781 O.2       1 UNK        -0.5181 
     37 C          27.5791   -1.6224   -7.3098 C.2       5 UNK         0.5014 
     38 O          28.3033   -1.4676   -8.2928 O.2       5 UNK        -0.5248 
     39 N          27.7348   -0.9628   -6.1517 N.am      6 UNK        -0.4434 
     40 CA         28.7919    0.0192   -5.9048 C.3       6 UNK         0.0363 
     41 CB         28.7216    0.5182   -4.4547 C.3       6 UNK        -0.1936 
     42 C          28.7604    1.2010   -6.8877 C.2       6 UNK         0.5081 
     43 O          29.8182    1.6124   -7.3605 O.2       6 UNK        -0.5248 
     44 N          27.5588    1.6998   -7.2092 N.am      7 UNK        -0.4718 
     45 CA         27.3375    2.7291   -8.2251 C.3       7 UNK         0.0273 
     46 CB         25.8894    3.2382   -8.1457 C.3       7 UNK        -0.1935 
     47 C          27.6660    2.2399   -9.6446 C.2       7 UNK         0.5018 
     48 O          28.3682    2.9439  -10.3705 O.2       7 UNK        -0.5186 
     49 N          27.1717    1.0473  -10.0110 N.am      8 UNK        -0.4240 
     50 CA         27.3802    0.4331  -11.3267 C.3       8 UNK         0.0235 
     51 CB         26.4875   -0.8102  -11.4687 C.3       8 UNK        -0.2000 
     52 C          28.8493    0.0784  -11.6097 C.2       8 UNK         0.4941 
     53 O          29.3351    0.3469  -12.7091 O.2       8 UNK        -0.5273 
     54 N          29.5305   -0.5053  -10.6158 N.am      9 UNK        -0.4262 
     55 CA         30.9426   -0.8875  -10.6864 C.3       9 UNK         0.0264 
     56 CB         31.1916   -2.0353   -9.6949 C.3       9 UNK        -0.1955 
     57 C          31.9126    0.2837  -10.4342 C.2       9 UNK         0.5031 
     58 O          33.1105    0.1167  -10.6692 O.2       9 UNK        -0.5390 
     59 N          31.3924    1.4317   -9.9713 N.am      10 UNK        -0.4204 
     60 CA         32.1092    2.6582   -9.5981 C.3       10 UNK         0.0237 
     61 CB         32.7704    3.3138  -10.8295 C.3       10 UNK        -0.1985 
     62 C          33.0843    2.4352   -8.4244 C.2       10 UNK         0.4970 
     63 O          34.2315    2.8842   -8.4720 O.2       10 UNK        -0.4914 
     64 N          32.5968    1.7397   -7.3918 N.am      11 UNK        -0.4285 
     65 CA         33.3279    1.4169   -6.1570 C.3       11 UNK         0.1007 
     66 C          33.2779    2.5466   -5.0893 C.2       11 UNK         0.5703 
     67 N          32.4600    3.5810   -5.2493 N.am      11 UNK        -0.7361 
     68 O          34.0057    2.4890   -4.1010 O.2       11 UNK        -0.4986 
     69 C69        32.8653    0.0626   -5.5564 C.3       12 UNK        -0.0947 
     70 S70        33.0692   -1.3150   -6.7333 S.3       12 UNK        -0.2240 
     71 C71        33.1172   -2.7595   -5.6323 C.3       12 UNK         0.0194 
     72 H72        29.8822    0.3330    0.9838 H         1 UNK         0.0906 
     73 H73        30.6508    0.0615    2.5440 H         1 UNK         0.0906 
     74 H74        30.4023   -1.2922    1.4548 H         1 UNK         0.0906 
     75 H75        26.7482   -1.4118    2.2200 H         1 UNK         0.3140 
     76 H76        28.3722   -1.3077   -0.1091 H         1 UNK         0.1085 
     77 H77        29.3118   -3.3200    1.3606 H         1 UNK         0.0836 
     78 H78        27.8436   -4.1309    0.9747 H         1 UNK         0.0836 
     79 H79        28.5344   -2.1433   -2.2582 H         1 UNK         0.0731 
     80 H80        30.1608   -1.8620   -1.6680 H         1 UNK         0.0731 
     81 H81        31.8588   -2.0048   -3.3362 H         1 UNK         0.1312 
     82 H82        31.3286   -4.4403   -6.8282 H         1 UNK         0.1406 
     83 H83        28.2987   -4.3427   -3.7980 H         1 UNK         0.1631 
     84 H84        28.2475   -6.0819   -5.4780 H         1 UNK         0.0717 
     85 H85        29.6076   -6.3094   -6.5402 H         1 UNK         0.0717 
     86 H86        25.7395   -4.5424   -6.7288 H         1 UNK         0.0934 
     87 H87        26.8902   -3.7853   -5.6655 H         1 UNK         0.0934 
     88 H88        26.2202   -2.7818   -8.4740 H         1 UNK         0.0739 
     89 H89        24.8479   -2.2003   -6.0000 H         1 UNK         0.3093 
     90 H90        23.1759    0.6991   -7.2439 H         1 UNK         0.0818 
     91 H91        21.1970   -0.6488   -6.6070 H         1 UNK         0.0819 
     92 H92        21.8770   -1.2566   -8.1063 H         1 UNK         0.0819 
     93 H93        22.1603   -2.1264   -6.6050 H         1 UNK         0.0819 
     94 H94        23.0067   -0.6687   -4.7460 H         1 UNK         0.3041 
     95 H95        25.6735    1.0442   -3.1144 H         1 UNK         0.0784 
     96 H96        23.7632    2.6639   -3.1177 H         1 UNK         0.0793 
     97 H97        22.6395    1.3463   -2.8125 H         1 UNK         0.0793 
     98 H98        23.8593    1.7703   -1.6106 H         1 UNK         0.0793 
     99 H99        23.9541   -0.6664   -1.8742 H         1 UNK         0.3024 
    100 H100       24.1789   -2.8246   -1.4944 H         1 UNK         0.1171 
    101 H101       24.2361   -4.2705   -3.5358 H         1 UNK         0.0786 
    102 H102       24.9372   -5.0939   -2.1525 H         1 UNK         0.0786 
    103 H103       25.9807   -4.4235   -3.4021 H         1 UNK         0.0786 
    104 H104       27.0280   -3.5053   -1.3946 H         1 UNK         0.2977 
    105 H105       27.1000   -1.1660   -5.3820 H         1 UNK         0.3127 
    106 H106       29.7404   -0.5025   -6.0455 H         1 UNK         0.0770 
    107 H107       27.7903    1.0486   -4.2575 H         1 UNK         0.0814 
    108 H108       29.5414    1.2049   -4.2396 H         1 UNK         0.0814 
    109 H109       28.7947   -0.3064   -3.7484 H         1 UNK         0.0814 
    110 H110       26.7358    1.3566   -6.7192 H         1 UNK         0.2983 
    111 H111       28.0035    3.5657   -8.0024 H         1 UNK         0.0947 
    112 H112       25.7018    4.0061   -8.8974 H         1 UNK         0.0806 
    113 H113       25.6795    3.6800   -7.1715 H         1 UNK         0.0806 
    114 H114       25.1689    2.4356   -8.3087 H         1 UNK         0.0806 
    115 H115       26.5866    0.5352   -9.3575 H         1 UNK         0.3000 
    116 H116       27.0686    1.1594  -12.0804 H         1 UNK         0.0850 
    117 H117       26.6217   -1.2802  -12.4438 H         1 UNK         0.0810 
    118 H118       25.4324   -0.5523  -11.3758 H         1 UNK         0.0810 
    119 H119       26.7157   -1.5591  -10.7093 H         1 UNK         0.0810 
    120 H120       29.0408   -0.7391   -9.7502 H         1 UNK         0.3040 
    121 H121       31.1527   -1.2634  -11.6900 H         1 UNK         0.0766 
    122 H122       32.2359   -2.3499   -9.7056 H         1 UNK         0.0812 
    123 H123       30.5855   -2.9082   -9.9379 H         1 UNK         0.0812 
    124 H124       30.9479   -1.7396   -8.6743 H         1 UNK         0.0812 
    125 H125       30.3981    1.4445   -9.7845 H         1 UNK         0.3205 
    126 H126       31.3479    3.3484   -9.2311 H         1 UNK         0.0754 
    127 H127       33.1928    4.2862  -10.5736 H         1 UNK         0.0769 
    128 H128       32.0456    3.4756  -11.6275 H         1 UNK         0.0769 
    129 H129       33.5804    2.7036  -11.2302 H         1 UNK         0.0769 
    130 H130       31.6124    1.4796   -7.4111 H         1 UNK         0.2981 
    131 H131       34.3830    1.3067   -6.4145 H         1 UNK         0.0541 
    132 H132       31.8533    3.6310   -6.0518 H         1 UNK         0.3459 
    133 H133       32.4425    4.3097   -4.5536 H         1 UNK         0.3459 
    134 H134       31.8208    0.1126   -5.2486 H         1 UNK         0.0612 
    135 H135       33.4407   -0.1682   -4.6582 H         1 UNK         0.0612 
    136 H136       33.5661   -3.5914   -6.1768 H         1 UNK         0.0624 
    137 H137       33.7807   -2.5603   -4.7895 H         1 UNK         0.0624 
@<TRIPOS>BOND
     1    1    2 1    
     2    1   72 1    
     3    1   73 1    
     4    1   74 1    
     5    2    3 2    
     6    2    4 am   BACKBONE|DICT|INTERRES
     7    4    5 1    
     8    4   75 1    
     9    5    6 1    
    10    5   35 1    
    11    5   76 1    
    12    6    7 1    
    13    6   77 1    
    14    6   78 1    
    15    7    8 1    
    16    8    9 1    
    17    8   79 1    
    18    8   80 1    
    19    9   10 ar   
    20    9   14 ar   
    21   10   11 ar   
    22   10   81 1    
    23   11   12 ar   
    24   11   71 1    
    25   12   13 ar   
    26   12   82 1    
    27   13   14 ar   
    28   13   15 1    
    29   14   83 1    
    30   15   16 1    
    31   15   84 1    
    32   15   85 1    
    33   16   17 1    
    34   17   18 1    
    35   17   86 1    
    36   17   87 1    
    37   18   19 1    
    38   18   37 1    
    39   18   88 1    
    40   19   20 am   BACKBONE|DICT|INTERRES
    41   19   89 1    
    42   20   21 2    
    43   20   22 1    
    44   22   23 1    
    45   22   24 1    
    46   22   90 1    
    47   23   91 1    
    48   23   92 1    
    49   23   93 1    
    50   24   25 am   BACKBONE|DICT|INTERRES
    51   24   94 1    
    52   25   26 2    
    53   25   27 1    
    54   27   28 1    
    55   27   29 1    
    56   27   95 1    
    57   28   96 1    
    58   28   97 1    
    59   28   98 1    
    60   29   30 am   BACKBONE|DICT|INTERRES
    61   29   99 1    
    62   30   31 2    
    63   30   32 1    
    64   32   33 1    
    65   32   34 1    
    66   32  100 1    
    67   33  101 1    
    68   33  102 1    
    69   33  103 1    
    70   34   35 am   BACKBONE|DICT|INTERRES
    71   34  104 1    
    72   35   36 2    
    73   37   38 2    
    74   37   39 am   BACKBONE|DICT|INTERRES
    75   39   40 1    
    76   39  105 1    
    77   40   41 1    
    78   40   42 1    
    79   40  106 1    
    80   41  107 1    
    81   41  108 1    
    82   41  109 1    
    83   42   43 2    
    84   42   44 am   BACKBONE|DICT|INTERRES
    85   44   45 1    
    86   44  110 1    
    87   45   46 1    
    88   45   47 1    
    89   45  111 1    
    90   46  112 1    
    91   46  113 1    
    92   46  114 1    
    93   47   48 2    
    94   47   49 am   BACKBONE|DICT|INTERRES
    95   49   50 1    
    96   49  115 1    
    97   50   51 1    
    98   50   52 1    
    99   50  116 1    
   100   51  117 1    
   101   51  118 1    
   102   51  119 1    
   103   52   53 2    
   104   52   54 am   BACKBONE|DICT|INTERRES
   105   54   55 1    
   106   54  120 1    
   107   55   56 1    
   108   55   57 1    
   109   55  121 1    
   110   56  122 1    
   111   56  123 1    
   112   56  124 1    
   113   57   58 2    
   114   57   59 am   BACKBONE|DICT|INTERRES
   115   59   60 1    
   116   59  125 1    
   117   60   61 1    
   118   60   62 1    
   119   60  126 1    
   120   61  127 1    
   121   61  128 1    
   122   61  129 1    
   123   62   63 2    
   124   62   64 am   BACKBONE|DICT|INTERRES
   125   64   65 1    
   126   64  130 1    
   127   65   66 1    
   128   65   69 1    
   129   65  131 1    
   130   66   67 am   BACKBONE|DICT|INTERRES
   131   66   68 2    
   132   67  132 1    
   133   67  133 1    
   134   69   70 1    
   135   69  134 1    
   136   69  135 1    
   137   70   71 1    
   138   71  136 1    
   139   71  137 1    
@<TRIPOS>SUBSTRUCTURE
     1 UNK         1 GROUP             0       ****    0 ROOT    
