@<TRIPOS>MOLECULE
3R137
137   139    1
SMALL
USER_CHARGES


@<TRIPOS>ATOM
      1 CA         23.3914   -4.9042   -2.7514 C.3       0 UNK        -0.2020 
      2 C          24.1086   -3.7215   -2.1195 C.2       0 UNK         0.4855 
      3 O          23.4573   -2.8452   -1.5502 O.2       0 UNK        -0.5197 
      4 N          25.4446   -3.6801   -2.2166 N.am      1 UNK        -0.4892 
      5 CA         26.2905   -2.6045   -1.6877 C.3       1 UNK         0.0835 
      6 C6         27.7899   -2.9511   -1.8178 C.3       12 UNK        -0.0855 
      7 S7         28.8449   -1.9837   -0.6823 S.3       12 UNK        -0.2931 
      8 C8         30.4591   -2.8165   -0.8655 C.3       12 UNK         0.0378 
      9 C9         30.9429   -2.8080   -2.3090 C.ar      12 UNK        -0.0802 
     10 C10        31.7071   -1.7464   -2.8049 C.ar      12 UNK        -0.0944 
     11 C11        32.0963   -1.7248   -4.1488 C.ar      12 UNK        -0.0787 
     12 C12        31.7095   -2.7663   -4.9974 C.ar      12 UNK        -0.0862 
     13 C13        30.9562   -3.8344   -4.5074 C.ar      12 UNK        -0.0733 
     14 C14        30.5990   -3.8619   -3.1590 C.ar      12 UNK        -0.0832 
     15 C15        30.5026   -4.9562   -5.4238 C.3       12 UNK         0.0240 
     16 S16        28.7590   -4.7376   -5.8980 S.3       12 UNK        -0.2522 
     17 C17        28.8898   -3.6489   -7.3600 C.3       12 UNK        -0.0967 
     18 CA         28.0691   -2.3340   -7.2832 C.3       5 UNK         0.0660 
     19 N          26.7236   -2.5468   -6.7441 N.am      5 UNK        -0.4015 
     20 C          25.6947   -1.6928   -6.8026 C.2       4 UNK         0.4946 
     21 O          25.8034   -0.5206   -7.1661 O.2       4 UNK        -0.5353 
     22 CA         24.3069   -2.2486   -6.4446 C.3       4 UNK         0.0277 
     23 CB         24.2847   -3.7587   -6.1177 C.3       4 UNK        -0.1981 
     24 N          23.7231   -1.4968   -5.3360 N.am      4 UNK        -0.4209 
     25 C          22.4126   -1.2371   -5.2043 C.2       3 UNK         0.4942 
     26 O          21.5751   -1.5554   -6.0504 O.2       3 UNK        -0.5208 
     27 CA         21.9217   -0.5377   -3.9203 C.3       3 UNK         0.0250 
     28 CB         20.8547   -1.3869   -3.2063 C.3       3 UNK        -0.1990 
     29 N          23.0105   -0.2562   -2.9830 N.am      3 UNK        -0.4232 
     30 C          23.6737    0.9070   -2.9262 C.2       2 UNK         0.4993 
     31 O          23.3352    1.9069   -3.5567 O.2       2 UNK        -0.5286 
     32 CA         24.9281    0.9869   -2.0341 C.3       2 UNK         0.0209 
     33 CB         24.6640    1.8737   -0.8061 C.3       2 UNK        -0.1931 
     34 N          25.4351   -0.3122   -1.5812 N.am      2 UNK        -0.4546 
     35 C          25.9482   -1.2649   -2.3706 C.2       1 UNK         0.5154 
     36 O          26.0960   -1.1428   -3.5910 O.2       1 UNK        -0.5181 
     37 C          28.8651   -1.1480   -6.6969 C.2       5 UNK         0.5014 
     38 O          29.7769   -0.6686   -7.3786 O.2       5 UNK        -0.5248 
     39 N          28.5078   -0.6516   -5.5021 N.am      6 UNK        -0.4434 
     40 CA         29.0981    0.5746   -4.9548 C.3       6 UNK         0.0363 
     41 CB         28.9394    0.6197   -3.4307 C.3       6 UNK        -0.1936 
     42 C          28.5012    1.8367   -5.5969 C.2       6 UNK         0.5081 
     43 O          29.2379    2.7937   -5.8306 O.2       6 UNK        -0.5248 
     44 N          27.1953    1.8140   -5.9029 N.am      7 UNK        -0.4718 
     45 CA         26.4971    2.8987   -6.6016 C.3       7 UNK         0.0273 
     46 CB         24.9876    2.8114   -6.3414 C.3       7 UNK        -0.1935 
     47 C          26.7923    2.9005   -8.1073 C.2       7 UNK         0.5018 
     48 O          26.9001    3.9745   -8.6996 O.2       7 UNK        -0.5186 
     49 N          26.9687    1.7045   -8.6887 N.am      8 UNK        -0.4240 
     50 CA         27.4593    1.5168  -10.0592 C.3       8 UNK         0.0235 
     51 CB         27.2125    0.0651  -10.4980 C.3       8 UNK        -0.2000 
     52 C          28.9494    1.8812  -10.2260 C.2       8 UNK         0.4941 
     53 O          29.3983    2.0352  -11.3622 O.2       8 UNK        -0.5273 
     54 N          29.6734    2.0117   -9.1026 N.am      9 UNK        -0.4262 
     55 CA         31.0860    2.3731   -8.9709 C.3       9 UNK         0.0264 
     56 CB         31.3313    3.8205   -9.4481 C.3       9 UNK        -0.1955 
     57 C          32.0163    1.3456   -9.6363 C.2       9 UNK         0.5031 
     58 O          32.8649    1.7133  -10.4514 O.2       9 UNK        -0.5390 
     59 N          31.8424    0.0672   -9.2697 N.am      10 UNK        -0.4204 
     60 CA         32.6881   -1.0382   -9.7355 C.3       10 UNK         0.0237 
     61 CB         32.0091   -2.3739   -9.3998 C.3       10 UNK        -0.1985 
     62 C          34.1163   -0.9981   -9.1563 C.2       10 UNK         0.4970 
     63 O          35.0336   -1.5314   -9.7814 O.2       10 UNK        -0.4914 
     64 N          34.2755   -0.3764   -7.9811 N.am      11 UNK        -0.4285 
     65 CA         35.5618   -0.1272   -7.3183 C.3       11 UNK         0.1007 
     66 C          36.3955    0.9407   -8.0752 C.2       11 UNK         0.5703 
     67 N          37.6845    0.7011   -8.2745 N.am      11 UNK        -0.7361 
     68 O          35.8925    2.0017   -8.4397 O.2       11 UNK        -0.4986 
     69 C69        35.3595    0.2853   -5.8369 C.3       12 UNK        -0.0947 
     70 S70        34.6729   -1.0734   -4.8365 S.3       12 UNK        -0.2240 
     71 C71        32.9289   -0.5800   -4.6988 C.3       12 UNK         0.0194 
     72 H72        22.8542   -5.4662   -1.9881 H         1 UNK         0.0906 
     73 H73        22.6679   -4.5538   -3.4869 H         1 UNK         0.0906 
     74 H74        24.0823   -5.5836   -3.2501 H         1 UNK         0.0906 
     75 H75        25.9287   -4.4174   -2.7085 H         1 UNK         0.3140 
     76 H76        26.0559   -2.5256   -0.6235 H         1 UNK         0.1085 
     77 H77        27.9464   -4.0050   -1.5822 H         1 UNK         0.0836 
     78 H78        28.1274   -2.8121   -2.8468 H         1 UNK         0.0836 
     79 H79        30.3813   -3.8408   -0.4973 H         1 UNK         0.0731 
     80 H80        31.1894   -2.3184   -0.2260 H         1 UNK         0.0731 
     81 H81        31.9847   -0.9322   -2.1494 H         1 UNK         0.1312 
     82 H82        31.9990   -2.7425   -6.0376 H         1 UNK         0.1406 
     83 H83        30.0114   -4.6880   -2.7823 H         1 UNK         0.1631 
     84 H84        30.6068   -5.9104   -4.9052 H         1 UNK         0.0717 
     85 H85        31.1350   -5.0246   -6.3102 H         1 UNK         0.0717 
     86 H86        28.5337   -4.2337   -8.2098 H         1 UNK         0.0934 
     87 H87        29.9366   -3.4457   -7.5845 H         1 UNK         0.0934 
     88 H88        27.9005   -2.0427   -8.3191 H         1 UNK         0.0739 
     89 H89        26.5531   -3.4765   -6.3891 H         1 UNK         0.3093 
     90 H90        23.7019   -2.0927   -7.3403 H         1 UNK         0.0818 
     91 H91        24.6706   -4.3532   -6.9471 H         1 UNK         0.0819 
     92 H92        24.8735   -3.9922   -5.2305 H         1 UNK         0.0819 
     93 H93        23.2664   -4.1033   -5.9372 H         1 UNK         0.0819 
     94 H94        24.3809   -1.1720   -4.6338 H         1 UNK         0.3041 
     95 H95        21.4467    0.3958   -4.2292 H         1 UNK         0.0784 
     96 H96        19.9804   -1.5323   -3.8422 H         1 UNK         0.0793 
     97 H97        21.2308   -2.3755   -2.9433 H         1 UNK         0.0793 
     98 H98        20.5102   -0.9045   -2.2914 H         1 UNK         0.0793 
     99 H99        23.3176   -1.0342   -2.4055 H         1 UNK         0.3024 
    100 H100       25.7051    1.4608   -2.6372 H         1 UNK         0.1171 
    101 H101       25.5693    2.0138   -0.2149 H         1 UNK         0.0786 
    102 H102       24.3198    2.8648   -1.1054 H         1 UNK         0.0786 
    103 H103       23.8992    1.4459   -0.1566 H         1 UNK         0.0786 
    104 H104       25.3252   -0.5118   -0.5970 H         1 UNK         0.2977 
    105 H105       27.7335   -1.0642   -4.9932 H         1 UNK         0.3127 
    106 H106       30.1690    0.5674   -5.1675 H         1 UNK         0.0770 
    107 H107       27.9040    0.7674   -3.1318 H         1 UNK         0.0814 
    108 H108       29.5177    1.4408   -3.0056 H         1 UNK         0.0814 
    109 H109       29.2968   -0.2997   -2.9730 H         1 UNK         0.0814 
    110 H110       26.6727    0.9588   -5.7574 H         1 UNK         0.2983 
    111 H111       26.8492    3.8534   -6.2036 H         1 UNK         0.0947 
    112 H112       24.4403    3.5386   -6.9429 H         1 UNK         0.0806 
    113 H113       24.7690    3.0352   -5.2994 H         1 UNK         0.0806 
    114 H114       24.5842    1.8247   -6.5713 H         1 UNK         0.0806 
    115 H115       26.7640    0.8711   -8.1429 H         1 UNK         0.3000 
    116 H116       26.8831    2.1744  -10.7137 H         1 UNK         0.0850 
    117 H117       27.3697   -0.0433  -11.5719 H         1 UNK         0.0810 
    118 H118       26.1928   -0.2560  -10.2839 H         1 UNK         0.0810 
    119 H119       27.8989   -0.6219  -10.0064 H         1 UNK         0.0810 
    120 H120       29.1977    1.8323   -8.2293 H         1 UNK         0.3040 
    121 H121       31.3090    2.3407   -7.9032 H         1 UNK         0.0766 
    122 H122       31.1590    3.9309  -10.5192 H         1 UNK         0.0812 
    123 H123       30.6796    4.5234   -8.9290 H         1 UNK         0.0812 
    124 H124       32.3599    4.1257   -9.2519 H         1 UNK         0.0812 
    125 H125       31.0983   -0.1626   -8.6112 H         1 UNK         0.3205 
    126 H126       32.7721   -0.9636  -10.8218 H         1 UNK         0.0754 
    127 H127       32.5762   -3.2132   -9.8046 H         1 UNK         0.0769 
    128 H128       31.0040   -2.4273   -9.8190 H         1 UNK         0.0769 
    129 H129       31.9354   -2.5198   -8.3234 H         1 UNK         0.0769 
    130 H130       33.4700    0.0563   -7.5599 H         1 UNK         0.2981 
    131 H131       36.1231   -1.0640   -7.3330 H         1 UNK         0.0541 
    132 H132       38.2433    1.3928   -8.7494 H         1 UNK         0.3459 
    133 H133       38.1086   -0.1608   -7.9681 H         1 UNK         0.3459 
    134 H134       34.7229    1.1687   -5.7569 H         1 UNK         0.0612 
    135 H135       36.3150    0.5586   -5.3853 H         1 UNK         0.0612 
    136 H136       32.8490    0.3009   -4.0600 H         1 UNK         0.0624 
    137 H137       32.5440   -0.2923   -5.6779 H         1 UNK         0.0624 
@<TRIPOS>BOND
     1    1    2 1    
     2    1   72 1    
     3    1   73 1    
     4    1   74 1    
     5    2    3 2    
     6    2    4 am   BACKBONE|DICT|INTERRES
     7    4    5 1    
     8    4   75 1    
     9    5    6 1    
    10    5   35 1    
    11    5   76 1    
    12    6    7 1    
    13    6   77 1    
    14    6   78 1    
    15    7    8 1    
    16    8    9 1    
    17    8   79 1    
    18    8   80 1    
    19    9   10 ar   
    20    9   14 ar   
    21   10   11 ar   
    22   10   81 1    
    23   11   12 ar   
    24   11   71 1    
    25   12   13 ar   
    26   12   82 1    
    27   13   14 ar   
    28   13   15 1    
    29   14   83 1    
    30   15   16 1    
    31   15   84 1    
    32   15   85 1    
    33   16   17 1    
    34   17   18 1    
    35   17   86 1    
    36   17   87 1    
    37   18   19 1    
    38   18   37 1    
    39   18   88 1    
    40   19   20 am   BACKBONE|DICT|INTERRES
    41   19   89 1    
    42   20   21 2    
    43   20   22 1    
    44   22   23 1    
    45   22   24 1    
    46   22   90 1    
    47   23   91 1    
    48   23   92 1    
    49   23   93 1    
    50   24   25 am   BACKBONE|DICT|INTERRES
    51   24   94 1    
    52   25   26 2    
    53   25   27 1    
    54   27   28 1    
    55   27   29 1    
    56   27   95 1    
    57   28   96 1    
    58   28   97 1    
    59   28   98 1    
    60   29   30 am   BACKBONE|DICT|INTERRES
    61   29   99 1    
    62   30   31 2    
    63   30   32 1    
    64   32   33 1    
    65   32   34 1    
    66   32  100 1    
    67   33  101 1    
    68   33  102 1    
    69   33  103 1    
    70   34   35 am   BACKBONE|DICT|INTERRES
    71   34  104 1    
    72   35   36 2    
    73   37   38 2    
    74   37   39 am   BACKBONE|DICT|INTERRES
    75   39   40 1    
    76   39  105 1    
    77   40   41 1    
    78   40   42 1    
    79   40  106 1    
    80   41  107 1    
    81   41  108 1    
    82   41  109 1    
    83   42   43 2    
    84   42   44 am   BACKBONE|DICT|INTERRES
    85   44   45 1    
    86   44  110 1    
    87   45   46 1    
    88   45   47 1    
    89   45  111 1    
    90   46  112 1    
    91   46  113 1    
    92   46  114 1    
    93   47   48 2    
    94   47   49 am   BACKBONE|DICT|INTERRES
    95   49   50 1    
    96   49  115 1    
    97   50   51 1    
    98   50   52 1    
    99   50  116 1    
   100   51  117 1    
   101   51  118 1    
   102   51  119 1    
   103   52   53 2    
   104   52   54 am   BACKBONE|DICT|INTERRES
   105   54   55 1    
   106   54  120 1    
   107   55   56 1    
   108   55   57 1    
   109   55  121 1    
   110   56  122 1    
   111   56  123 1    
   112   56  124 1    
   113   57   58 2    
   114   57   59 am   BACKBONE|DICT|INTERRES
   115   59   60 1    
   116   59  125 1    
   117   60   61 1    
   118   60   62 1    
   119   60  126 1    
   120   61  127 1    
   121   61  128 1    
   122   61  129 1    
   123   62   63 2    
   124   62   64 am   BACKBONE|DICT|INTERRES
   125   64   65 1    
   126   64  130 1    
   127   65   66 1    
   128   65   69 1    
   129   65  131 1    
   130   66   67 am   BACKBONE|DICT|INTERRES
   131   66   68 2    
   132   67  132 1    
   133   67  133 1    
   134   69   70 1    
   135   69  134 1    
   136   69  135 1    
   137   70   71 1    
   138   71  136 1    
   139   71  137 1    
@<TRIPOS>SUBSTRUCTURE
     1 UNK         1 GROUP             0       ****    0 ROOT    
