@<TRIPOS>MOLECULE
3R137
137   139    1
SMALL
USER_CHARGES


@<TRIPOS>ATOM
      1 CA         28.0889   -2.4888    4.0559 C.3       0 UNK        -0.2020 
      2 C          28.0673   -3.8430    3.3506 C.2       0 UNK         0.4855 
      3 O          27.8863   -4.8638    4.0120 O.2       0 UNK        -0.5197 
      4 N          28.2614   -3.9142    2.0267 N.am      1 UNK        -0.4892 
      5 CA         28.4032   -2.7991    1.0826 C.3       1 UNK         0.0835 
      6 C6         29.0694   -3.2582   -0.2420 C.3       12 UNK        -0.0855 
      7 S7         28.2593   -4.6820   -1.0562 S.3       12 UNK        -0.2931 
      8 C8         29.5864   -5.2677   -2.1603 C.3       12 UNK         0.0378 
      9 C9         29.7063   -4.3984   -3.4042 C.ar      12 UNK        -0.0802 
     10 C10        30.4647   -3.2244   -3.3752 C.ar      12 UNK        -0.0944 
     11 C11        30.5506   -2.3970   -4.4990 C.ar      12 UNK        -0.0787 
     12 C12        29.8848   -2.7752   -5.6714 C.ar      12 UNK        -0.0862 
     13 C13        29.1359   -3.9542   -5.7206 C.ar      12 UNK        -0.0733 
     14 C14        29.0498   -4.7625   -4.5834 C.ar      12 UNK        -0.0832 
     15 C15        28.4112   -4.3466   -6.9990 C.3       12 UNK         0.0240 
     16 S16        26.6135   -4.1147   -6.8267 S.3       12 UNK        -0.2522 
     17 C17        26.1640   -3.3660   -8.4308 C.3       12 UNK        -0.0967 
     18 CA         25.8886   -1.8433   -8.3477 C.3       5 UNK         0.0660 
     19 N          24.8402   -1.5282   -7.3768 N.am      5 UNK        -0.4015 
     20 C          24.1872   -0.3628   -7.2800 C.2       4 UNK         0.4946 
     21 O          24.3513    0.5790   -8.0570 O.2       4 UNK        -0.5353 
     22 CA         23.2205   -0.2059   -6.0906 C.3       4 UNK         0.0277 
     23 CB         21.7731   -0.4619   -6.5408 C.3       4 UNK        -0.1981 
     24 N          23.5302   -1.0641   -4.9367 N.am      4 UNK        -0.4209 
     25 C          24.6690   -1.0203   -4.2304 C.2       3 UNK         0.4942 
     26 O          25.6197   -0.2879   -4.5131 O.2       3 UNK        -0.5208 
     27 CA         24.7867   -1.9990   -3.0522 C.3       3 UNK         0.0250 
     28 CB         25.4896   -3.2926   -3.4916 C.3       3 UNK        -0.1990 
     29 N          25.5441   -1.4065   -1.9522 N.am      3 UNK        -0.4232 
     30 C          25.0683   -0.4853   -1.1043 C.2       2 UNK         0.4993 
     31 O          23.9091   -0.0670   -1.1388 O.2       2 UNK        -0.5286 
     32 CA         26.0501    0.0655   -0.0467 C.3       2 UNK         0.0209 
     33 CB         25.3331    0.5465    1.2342 C.3       2 UNK        -0.1931 
     34 N          27.1563   -0.8470    0.2891 N.am      2 UNK        -0.4546 
     35 C          27.0628   -2.0722    0.8314 C.2       1 UNK         0.5154 
     36 O          25.9951   -2.6187    1.1204 O.2       1 UNK        -0.5181 
     37 C          27.1885   -1.0309   -8.1531 C.2       5 UNK         0.5014 
     38 O          28.0180   -1.0466   -9.0611 O.2       5 UNK        -0.5248 
     39 N          27.3545   -0.3154   -7.0270 N.am      6 UNK        -0.4434 
     40 CA         28.4983    0.5639   -6.7516 C.3       6 UNK         0.0363 
     41 CB         28.3488    1.1833   -5.3546 C.3       6 UNK        -0.1936 
     42 C          28.7209    1.6622   -7.8037 C.2       6 UNK         0.5081 
     43 O          29.8715    1.9968   -8.0893 O.2       6 UNK        -0.5248 
     44 N          27.6269    2.1741   -8.3841 N.am      7 UNK        -0.4718 
     45 CA         27.6532    3.1505   -9.4747 C.3       7 UNK         0.0273 
     46 CB         26.2685    3.8054   -9.6003 C.3       7 UNK        -0.1935 
     47 C          28.0825    2.5353  -10.8184 C.2       7 UNK         0.5018 
     48 O          28.7361    3.2160  -11.6084 O.2       7 UNK        -0.5186 
     49 N          27.7161    1.2670  -11.0515 N.am      8 UNK        -0.4240 
     50 CA         28.0655    0.5076  -12.2548 C.3       8 UNK         0.0235 
     51 CB         27.0690   -0.6483  -12.4455 C.3       8 UNK        -0.2000 
     52 C          29.5079   -0.0167  -12.1950 C.2       8 UNK         0.4941 
     53 O          30.2305    0.0748  -13.1877 O.2       8 UNK        -0.5273 
     54 N          29.9042   -0.5333  -11.0238 N.am      9 UNK        -0.4262 
     55 CA         31.2582   -0.9986  -10.7171 C.3       9 UNK         0.0264 
     56 CB         31.2143   -1.8259   -9.4224 C.3       9 UNK        -0.1955 
     57 C          32.2800    0.1449  -10.5834 C.2       9 UNK         0.5031 
     58 O          33.4769   -0.1096  -10.7247 O.2       9 UNK        -0.5390 
     59 N          31.7907    1.3646  -10.3110 N.am      10 UNK        -0.4204 
     60 CA         32.5374    2.6014  -10.0676 C.3       10 UNK         0.0237 
     61 CB         33.3128    3.0455  -11.3268 C.3       10 UNK        -0.1985 
     62 C          33.4161    2.4897   -8.8096 C.2       10 UNK         0.4970 
     63 O          34.6236    2.7311   -8.8706 O.2       10 UNK        -0.4914 
     64 N          32.7834    2.1122   -7.6907 N.am      11 UNK        -0.4285 
     65 CA         33.4315    1.9674   -6.3761 C.3       11 UNK         0.1007 
     66 C          33.9130    3.3053   -5.7393 C.2       11 UNK         0.5703 
     67 N          33.4323    4.4638   -6.1768 N.am      11 UNK        -0.7361 
     68 O          34.7423    3.2891   -4.8328 O.2       11 UNK        -0.4986 
     69 C69        32.5420    1.1898   -5.3733 C.3       12 UNK        -0.0947 
     70 S70        32.1353   -0.5064   -5.9012 S.3       12 UNK        -0.2240 
     71 C71        31.3000   -1.0710   -4.3810 C.3       12 UNK         0.0194 
     72 H72        29.0179   -1.9552    3.8585 H         1 UNK         0.0906 
     73 H73        27.2492   -1.8703    3.7408 H         1 UNK         0.0906 
     74 H74        28.0121   -2.6215    5.1350 H         1 UNK         0.0906 
     75 H75        28.2076   -4.8202    1.5822 H         1 UNK         0.3140 
     76 H76        29.0749   -2.0665    1.5342 H         1 UNK         0.1085 
     77 H77        29.1268   -2.4338   -0.9546 H         1 UNK         0.0836 
     78 H78        30.1044   -3.5327   -0.0316 H         1 UNK         0.0836 
     79 H79        30.5361   -5.2982   -1.6240 H         1 UNK         0.0731 
     80 H80        29.3708   -6.2982   -2.4470 H         1 UNK         0.0731 
     81 H81        30.9697   -2.9400   -2.4625 H         1 UNK         0.1312 
     82 H82        29.9366   -2.1524   -6.5503 H         1 UNK         0.1406 
     83 H83        28.4561   -5.6663   -4.6142 H         1 UNK         0.1631 
     84 H84        28.6172   -5.3912   -7.2363 H         1 UNK         0.0717 
     85 H85        28.7916   -3.7613   -7.8375 H         1 UNK         0.0717 
     86 H86        26.9240   -3.5871   -9.1829 H         1 UNK         0.0934 
     87 H87        25.2642   -3.8720   -8.7841 H         1 UNK         0.0934 
     88 H88        25.5048   -1.5399   -9.3242 H         1 UNK         0.0739 
     89 H89        24.6558   -2.2414   -6.6866 H         1 UNK         0.3093 
     90 H90        23.2958    0.8305   -5.7547 H         1 UNK         0.0818 
     91 H91        21.0641   -0.2525   -5.7395 H         1 UNK         0.0819 
     92 H92        21.5062    0.1809   -7.3811 H         1 UNK         0.0819 
     93 H93        21.6253   -1.4941   -6.8610 H         1 UNK         0.0819 
     94 H94        22.8046   -1.7042   -4.6456 H         1 UNK         0.3041 
     95 H95        23.7865   -2.2487   -2.6913 H         1 UNK         0.0784 
     96 H96        24.9306   -3.7940   -4.2821 H         1 UNK         0.0793 
     97 H97        26.4943   -3.0983   -3.8711 H         1 UNK         0.0793 
     98 H98        25.5779   -3.9973   -2.6644 H         1 UNK         0.0793 
     99 H99        26.5138   -1.6737   -1.8776 H         1 UNK         0.3024 
    100 H100       26.5086    0.9413   -0.5095 H         1 UNK         0.1171 
    101 H101       24.6157    1.3369    1.0096 H         1 UNK         0.0786 
    102 H102       26.0406    0.9519    1.9574 H         1 UNK         0.0786 
    103 H103       24.7833   -0.2611    1.7184 H         1 UNK         0.0786 
    104 H104       28.0789   -0.4884    0.0816 H         1 UNK         0.2977 
    105 H105       26.6455   -0.3637   -6.3014 H         1 UNK         0.3127 
    106 H106       29.3948   -0.0512   -6.7569 H         1 UNK         0.0770 
    107 H107       27.4416    1.7836   -5.2759 H         1 UNK         0.0814 
    108 H108       28.3056    0.4134   -4.5841 H         1 UNK         0.0814 
    109 H109       29.1920    1.8330   -5.1187 H         1 UNK         0.0814 
    110 H110       26.7204    1.8364   -8.0883 H         1 UNK         0.2983 
    111 H111       28.3781    3.9282   -9.2227 H         1 UNK         0.0947 
    112 H112       26.2580    4.5467  -10.4007 H         1 UNK         0.0806 
    113 H113       25.9888    4.3198   -8.6807 H         1 UNK         0.0806 
    114 H114       25.4922    3.0720   -9.8233 H         1 UNK         0.0806 
    115 H115       27.2328    0.7651  -10.3202 H         1 UNK         0.3000 
    116 H116       27.9852    1.1693  -13.1204 H         1 UNK         0.0850 
    117 H117       27.2924   -1.2065  -13.3556 H         1 UNK         0.0810 
    118 H118       26.0471   -0.2796  -12.5355 H         1 UNK         0.0810 
    119 H119       27.0985   -1.3555  -11.6159 H         1 UNK         0.0810 
    120 H120       29.2140   -0.6314  -10.2781 H         1 UNK         0.3040 
    121 H121       31.5901   -1.6459  -11.5315 H         1 UNK         0.0766 
    122 H122       32.2035   -2.2053   -9.1624 H         1 UNK         0.0812 
    123 H123       30.5506   -2.6849   -9.5211 H         1 UNK         0.0812 
    124 H124       30.8632   -1.2265   -8.5824 H         1 UNK         0.0812 
    125 H125       30.7949    1.4306  -10.1460 H         1 UNK         0.3205 
    126 H126       31.7922    3.3698   -9.8553 H         1 UNK         0.0754 
    127 H127       33.7762    4.0209  -11.1738 H         1 UNK         0.0769 
    128 H128       32.6499    3.1326  -12.1878 H         1 UNK         0.0769 
    129 H129       34.1083    2.3462  -11.5856 H         1 UNK         0.0769 
    130 H130       31.7805    1.9516   -7.7262 H         1 UNK         0.2981 
    131 H131       34.3343    1.3744   -6.5342 H         1 UNK         0.0541 
    132 H132       32.7473    4.4874   -6.9144 H         1 UNK         0.3459 
    133 H133       33.7556    5.3218   -5.7586 H         1 UNK         0.3459 
    134 H134       31.6106    1.7312   -5.2006 H         1 UNK         0.0612 
    135 H135       33.0393    1.1172   -4.4038 H         1 UNK         0.0612 
    136 H136       32.0514   -1.1357   -3.5924 H         1 UNK         0.0624 
    137 H137       30.5866   -0.3100   -4.0648 H         1 UNK         0.0624 
@<TRIPOS>BOND
     1    1    2 1    
     2    1   72 1    
     3    1   73 1    
     4    1   74 1    
     5    2    3 2    
     6    2    4 am   BACKBONE|DICT|INTERRES
     7    4    5 1    
     8    4   75 1    
     9    5    6 1    
    10    5   35 1    
    11    5   76 1    
    12    6    7 1    
    13    6   77 1    
    14    6   78 1    
    15    7    8 1    
    16    8    9 1    
    17    8   79 1    
    18    8   80 1    
    19    9   10 ar   
    20    9   14 ar   
    21   10   11 ar   
    22   10   81 1    
    23   11   12 ar   
    24   11   71 1    
    25   12   13 ar   
    26   12   82 1    
    27   13   14 ar   
    28   13   15 1    
    29   14   83 1    
    30   15   16 1    
    31   15   84 1    
    32   15   85 1    
    33   16   17 1    
    34   17   18 1    
    35   17   86 1    
    36   17   87 1    
    37   18   19 1    
    38   18   37 1    
    39   18   88 1    
    40   19   20 am   BACKBONE|DICT|INTERRES
    41   19   89 1    
    42   20   21 2    
    43   20   22 1    
    44   22   23 1    
    45   22   24 1    
    46   22   90 1    
    47   23   91 1    
    48   23   92 1    
    49   23   93 1    
    50   24   25 am   BACKBONE|DICT|INTERRES
    51   24   94 1    
    52   25   26 2    
    53   25   27 1    
    54   27   28 1    
    55   27   29 1    
    56   27   95 1    
    57   28   96 1    
    58   28   97 1    
    59   28   98 1    
    60   29   30 am   BACKBONE|DICT|INTERRES
    61   29   99 1    
    62   30   31 2    
    63   30   32 1    
    64   32   33 1    
    65   32   34 1    
    66   32  100 1    
    67   33  101 1    
    68   33  102 1    
    69   33  103 1    
    70   34   35 am   BACKBONE|DICT|INTERRES
    71   34  104 1    
    72   35   36 2    
    73   37   38 2    
    74   37   39 am   BACKBONE|DICT|INTERRES
    75   39   40 1    
    76   39  105 1    
    77   40   41 1    
    78   40   42 1    
    79   40  106 1    
    80   41  107 1    
    81   41  108 1    
    82   41  109 1    
    83   42   43 2    
    84   42   44 am   BACKBONE|DICT|INTERRES
    85   44   45 1    
    86   44  110 1    
    87   45   46 1    
    88   45   47 1    
    89   45  111 1    
    90   46  112 1    
    91   46  113 1    
    92   46  114 1    
    93   47   48 2    
    94   47   49 am   BACKBONE|DICT|INTERRES
    95   49   50 1    
    96   49  115 1    
    97   50   51 1    
    98   50   52 1    
    99   50  116 1    
   100   51  117 1    
   101   51  118 1    
   102   51  119 1    
   103   52   53 2    
   104   52   54 am   BACKBONE|DICT|INTERRES
   105   54   55 1    
   106   54  120 1    
   107   55   56 1    
   108   55   57 1    
   109   55  121 1    
   110   56  122 1    
   111   56  123 1    
   112   56  124 1    
   113   57   58 2    
   114   57   59 am   BACKBONE|DICT|INTERRES
   115   59   60 1    
   116   59  125 1    
   117   60   61 1    
   118   60   62 1    
   119   60  126 1    
   120   61  127 1    
   121   61  128 1    
   122   61  129 1    
   123   62   63 2    
   124   62   64 am   BACKBONE|DICT|INTERRES
   125   64   65 1    
   126   64  130 1    
   127   65   66 1    
   128   65   69 1    
   129   65  131 1    
   130   66   67 am   BACKBONE|DICT|INTERRES
   131   66   68 2    
   132   67  132 1    
   133   67  133 1    
   134   69   70 1    
   135   69  134 1    
   136   69  135 1    
   137   70   71 1    
   138   71  136 1    
   139   71  137 1    
@<TRIPOS>SUBSTRUCTURE
     1 UNK         1 GROUP             0       ****    0 ROOT    
