@<TRIPOS>MOLECULE
3R137
137   139    1
SMALL
USER_CHARGES


@<TRIPOS>ATOM
      1 CA         24.7583   -6.7649   -2.4424 C.3       0 UNK        -0.2020 
      2 C          25.7344   -5.6037   -2.3337 C.2       0 UNK         0.4855 
      3 O          26.1072   -5.0259   -3.3536 O.2       0 UNK        -0.5197 
      4 N          26.1352   -5.2491   -1.1044 N.am      1 UNK        -0.4892 
      5 CA         27.0876   -4.1792   -0.7716 C.3       1 UNK         0.0835 
      6 C6         28.5466   -4.5445   -1.1642 C.3       12 UNK        -0.0855 
      7 S7         29.7591   -3.8697    0.0172 S.3       12 UNK        -0.2931 
      8 C8         31.2115   -3.5925   -1.0527 C.3       12 UNK         0.0378 
      9 C9         31.1696   -2.2822   -1.8361 C.ar      12 UNK        -0.0802 
     10 C10        31.5803   -2.2570   -3.1728 C.ar      12 UNK        -0.0944 
     11 C11        31.6287   -1.0525   -3.8911 C.ar      12 UNK        -0.0787 
     12 C12        31.2710    0.1332   -3.2402 C.ar      12 UNK        -0.0862 
     13 C13        30.8270    0.1236   -1.9137 C.ar      12 UNK        -0.0733 
     14 C14        30.7902   -1.0871   -1.2172 C.ar      12 UNK        -0.0832 
     15 C15        30.4035    1.4111   -1.2087 C.3       12 UNK         0.0240 
     16 S16        29.2097    2.4278   -2.1480 S.3       12 UNK        -0.2522 
     17 C17        27.9248    1.2190   -2.6194 C.3       12 UNK        -0.0967 
     18 CA         27.9948    0.9009   -4.1356 C.3       5 UNK         0.0660 
     19 N          27.7110   -0.5066   -4.4363 N.am      5 UNK        -0.4015 
     20 C          27.9167   -1.0698   -5.6368 C.2       4 UNK         0.4946 
     21 O          28.3551   -0.4566   -6.6078 O.2       4 UNK        -0.5353 
     22 CA         27.5217   -2.5446   -5.8037 C.3       4 UNK         0.0277 
     23 CB         28.5771   -3.4659   -5.1785 C.3       4 UNK        -0.1981 
     24 N          26.2086   -2.8201   -5.2219 N.am      4 UNK        -0.4209 
     25 C          25.0571   -2.3299   -5.7037 C.2       3 UNK         0.4942 
     26 O          24.9687   -1.6901   -6.7516 O.2       3 UNK        -0.5208 
     27 CA         23.7977   -2.5468   -4.8492 C.3       3 UNK         0.0250 
     28 CB         23.1881   -3.9346   -5.1045 C.3       3 UNK        -0.1990 
     29 N          24.0562   -2.3652   -3.4178 N.am      3 UNK        -0.4232 
     30 C          24.3943   -1.1957   -2.8540 C.2       2 UNK         0.4993 
     31 O          24.4924   -0.1395   -3.4762 O.2       2 UNK        -0.5286 
     32 CA         24.7126   -1.2058   -1.3502 C.3       2 UNK         0.0209 
     33 CB         23.4338   -0.9902   -0.5256 C.3       2 UNK        -0.1931 
     34 N          25.3819   -2.4328   -0.9095 N.am      2 UNK        -0.4546 
     35 C          26.6089   -2.8073   -1.3005 C.2       1 UNK         0.5154 
     36 O          27.2972   -2.1482   -2.0823 O.2       1 UNK        -0.5181 
     37 C          27.1634    1.8868   -4.9838 C.2       5 UNK         0.5014 
     38 O          27.6937    2.9170   -5.4005 O.2       5 UNK        -0.5248 
     39 N          25.9062    1.5357   -5.2907 N.am      6 UNK        -0.4434 
     40 CA         25.0303    2.2734   -6.2074 C.3       6 UNK         0.0363 
     41 CB         23.6193    1.6657   -6.1666 C.3       6 UNK        -0.1936 
     42 C          25.5475    2.3434   -7.6592 C.2       6 UNK         0.5081 
     43 O          25.1758    3.2721   -8.3770 O.2       6 UNK        -0.5248 
     44 N          26.4051    1.3952   -8.0652 N.am      7 UNK        -0.4718 
     45 CA         27.1026    1.4020   -9.3554 C.3       7 UNK         0.0273 
     46 CB         27.3415   -0.0481   -9.8059 C.3       7 UNK        -0.1935 
     47 C          28.4242    2.1960   -9.3131 C.2       7 UNK         0.5018 
     48 O          29.0711    2.3319  -10.3536 O.2       7 UNK        -0.5186 
     49 N          28.8048    2.7102   -8.1324 N.am      8 UNK        -0.4240 
     50 CA         29.9732    3.5494   -7.8571 C.3       8 UNK         0.0235 
     51 CB         29.7411    4.9738   -8.4123 C.3       8 UNK        -0.2000 
     52 C          31.2837    2.8884   -8.3225 C.2       8 UNK         0.4941 
     53 O          31.5984    1.7908   -7.8612 O.2       8 UNK        -0.5273 
     54 N          32.0117    3.5514   -9.2314 N.am      9 UNK        -0.4262 
     55 CA         33.2882    3.1028   -9.7914 C.3       9 UNK         0.0264 
     56 CB         33.8977    4.2404  -10.6272 C.3       9 UNK        -0.1955 
     57 C          33.2038    1.8105  -10.6241 C.2       9 UNK         0.5031 
     58 O          34.2227    1.1308  -10.7583 O.2       9 UNK        -0.5390 
     59 N          32.0195    1.4839  -11.1659 N.am      10 UNK        -0.4204 
     60 CA         31.7849    0.2295  -11.8879 C.3       10 UNK         0.0237 
     61 CB         30.5245    0.3505  -12.7589 C.3       10 UNK        -0.1985 
     62 C          31.6860   -0.9788  -10.9402 C.2       10 UNK         0.4970 
     63 O          32.1035   -2.0719  -11.3248 O.2       10 UNK        -0.4914 
     64 N          31.1666   -0.7509   -9.7248 N.am      11 UNK        -0.4285 
     65 CA         31.0150   -1.7331   -8.6431 C.3       11 UNK         0.1007 
     66 C          30.1677   -2.9860   -9.0365 C.2       11 UNK         0.5703 
     67 N          30.3715   -4.1303   -8.3981 N.am      11 UNK        -0.7361 
     68 O          29.2858   -2.9189   -9.8905 O.2       11 UNK        -0.4986 
     69 C69        32.3858   -2.0276   -7.9623 C.3       12 UNK        -0.0947 
     70 S70        32.2308   -2.5655   -6.2269 S.3       12 UNK        -0.2240 
     71 C71        32.0630   -0.9664   -5.3587 C.3       12 UNK         0.0194 
     72 H72        25.1640   -7.5325   -3.1007 H         1 UNK         0.0906 
     73 H73        24.5566   -7.2219   -1.4739 H         1 UNK         0.0906 
     74 H74        23.8123   -6.4231   -2.8610 H         1 UNK         0.0906 
     75 H75        25.7748   -5.7616   -0.3104 H         1 UNK         0.3140 
     76 H76        27.0471   -4.1015    0.3165 H         1 UNK         0.1085 
     77 H77        28.6769   -5.6278   -1.1530 H         1 UNK         0.0836 
     78 H78        28.7856   -4.2379   -2.1814 H         1 UNK         0.0836 
     79 H79        31.3252   -4.4458   -1.7234 H         1 UNK         0.0731 
     80 H80        32.1023   -3.5796   -0.4235 H         1 UNK         0.0731 
     81 H81        31.8775   -3.1847   -3.6390 H         1 UNK         0.1312 
     82 H82        31.3177    1.0710   -3.7771 H         1 UNK         0.1406 
     83 H83        30.4752   -1.1006   -0.1828 H         1 UNK         0.1631 
     84 H84        31.2927    2.0105   -1.0098 H         1 UNK         0.0717 
     85 H85        29.9619    1.1873   -0.2364 H         1 UNK         0.0717 
     86 H86        28.0731    0.3175   -2.0249 H         1 UNK         0.0934 
     87 H87        26.9425    1.5968   -2.3288 H         1 UNK         0.0934 
     88 H88        29.0242    1.0430   -4.4674 H         1 UNK         0.0739 
     89 H89        27.4041   -1.0918   -3.6625 H         1 UNK         0.3093 
     90 H90        27.4684   -2.7638   -6.8725 H         1 UNK         0.0818 
     91 H91        28.2698   -4.5113   -5.2078 H         1 UNK         0.0819 
     92 H92        29.5192   -3.3887   -5.7174 H         1 UNK         0.0819 
     93 H93        28.7779   -3.1983   -4.1425 H         1 UNK         0.0819 
     94 H94        26.1876   -3.4032   -4.3882 H         1 UNK         0.3041 
     95 H95        23.0637   -1.7957   -5.1496 H         1 UNK         0.0784 
     96 H96        22.9345   -4.0570   -6.1584 H         1 UNK         0.0793 
     97 H97        23.8776   -4.7374   -4.8436 H         1 UNK         0.0793 
     98 H98        22.2710   -4.0781   -4.5329 H         1 UNK         0.0793 
     99 H99        24.0333   -3.1904   -2.8378 H         1 UNK         0.3024 
    100 H100       25.3887   -0.3694   -1.1582 H         1 UNK         0.1171 
    101 H101       22.9287   -0.0703   -0.8242 H         1 UNK         0.0786 
    102 H102       23.6572   -0.9035    0.5380 H         1 UNK         0.0786 
    103 H103       22.7242   -1.8084   -0.6552 H         1 UNK         0.0786 
    104 H104       24.8667   -3.0380   -0.2861 H         1 UNK         0.2977 
    105 H105       25.5024    0.7196   -4.8355 H         1 UNK         0.3127 
    106 H106       24.9671    3.2999   -5.8404 H         1 UNK         0.0770 
    107 H107       23.6186    0.6273   -6.4983 H         1 UNK         0.0814 
    108 H108       22.9372    2.2161   -6.8159 H         1 UNK         0.0814 
    109 H109       23.2025    1.6962   -5.1598 H         1 UNK         0.0814 
    110 H110       26.6884    0.6732   -7.4111 H         1 UNK         0.2983 
    111 H111       26.4673    1.8813  -10.1034 H         1 UNK         0.0947 
    112 H112       27.7437   -0.0833  -10.8183 H         1 UNK         0.0806 
    113 H113       26.4158   -0.6237   -9.8067 H         1 UNK         0.0806 
    114 H114       28.0521   -0.5610   -9.1595 H         1 UNK         0.0806 
    115 H115       28.2235    2.5211   -7.3229 H         1 UNK         0.3000 
    116 H116       30.0457    3.6256   -6.7711 H         1 UNK         0.0850 
    117 H117       30.5619    5.6428   -8.1503 H         1 UNK         0.0810 
    118 H118       28.8351    5.4089   -7.9896 H         1 UNK         0.0810 
    119 H119       29.6293    4.9824   -9.4973 H         1 UNK         0.0810 
    120 H120       31.6583    4.4365   -9.5652 H         1 UNK         0.3040 
    121 H121       33.9580    2.8990   -8.9532 H         1 UNK         0.0766 
    122 H122       34.0574    5.1354  -10.0255 H         1 UNK         0.0812 
    123 H123       33.2594    4.5094  -11.4699 H         1 UNK         0.0812 
    124 H124       34.8676    3.9499  -11.0337 H         1 UNK         0.0812 
    125 H125       31.2140    2.0752  -10.9937 H         1 UNK         0.3205 
    126 H126       32.6318    0.0549  -12.5555 H         1 UNK         0.0754 
    127 H127       30.3694   -0.5565  -13.3447 H         1 UNK         0.0769 
    128 H128       30.6050    1.1803  -13.4613 H         1 UNK         0.0769 
    129 H129       29.6287    0.5046  -12.1590 H         1 UNK         0.0769 
    130 H130       30.8803    0.1896   -9.4918 H         1 UNK         0.2981 
    131 H131       30.3989   -1.2101   -7.9155 H         1 UNK         0.0541 
    132 H132       29.8194   -4.9375   -8.6391 H         1 UNK         0.3459 
    133 H133       31.0756   -4.1887   -7.6779 H         1 UNK         0.3459 
    134 H134       32.9418   -2.7805   -8.5234 H         1 UNK         0.0612 
    135 H135       33.0108   -1.1326   -7.9687 H         1 UNK         0.0612 
    136 H136       33.0149   -0.4372   -5.4164 H         1 UNK         0.0624 
    137 H137       31.3351   -0.3574   -5.8975 H         1 UNK         0.0624 
@<TRIPOS>BOND
     1    1    2 1    
     2    1   72 1    
     3    1   73 1    
     4    1   74 1    
     5    2    3 2    
     6    2    4 am   BACKBONE|DICT|INTERRES
     7    4    5 1    
     8    4   75 1    
     9    5    6 1    
    10    5   35 1    
    11    5   76 1    
    12    6    7 1    
    13    6   77 1    
    14    6   78 1    
    15    7    8 1    
    16    8    9 1    
    17    8   79 1    
    18    8   80 1    
    19    9   10 ar   
    20    9   14 ar   
    21   10   11 ar   
    22   10   81 1    
    23   11   12 ar   
    24   11   71 1    
    25   12   13 ar   
    26   12   82 1    
    27   13   14 ar   
    28   13   15 1    
    29   14   83 1    
    30   15   16 1    
    31   15   84 1    
    32   15   85 1    
    33   16   17 1    
    34   17   18 1    
    35   17   86 1    
    36   17   87 1    
    37   18   19 1    
    38   18   37 1    
    39   18   88 1    
    40   19   20 am   BACKBONE|DICT|INTERRES
    41   19   89 1    
    42   20   21 2    
    43   20   22 1    
    44   22   23 1    
    45   22   24 1    
    46   22   90 1    
    47   23   91 1    
    48   23   92 1    
    49   23   93 1    
    50   24   25 am   BACKBONE|DICT|INTERRES
    51   24   94 1    
    52   25   26 2    
    53   25   27 1    
    54   27   28 1    
    55   27   29 1    
    56   27   95 1    
    57   28   96 1    
    58   28   97 1    
    59   28   98 1    
    60   29   30 am   BACKBONE|DICT|INTERRES
    61   29   99 1    
    62   30   31 2    
    63   30   32 1    
    64   32   33 1    
    65   32   34 1    
    66   32  100 1    
    67   33  101 1    
    68   33  102 1    
    69   33  103 1    
    70   34   35 am   BACKBONE|DICT|INTERRES
    71   34  104 1    
    72   35   36 2    
    73   37   38 2    
    74   37   39 am   BACKBONE|DICT|INTERRES
    75   39   40 1    
    76   39  105 1    
    77   40   41 1    
    78   40   42 1    
    79   40  106 1    
    80   41  107 1    
    81   41  108 1    
    82   41  109 1    
    83   42   43 2    
    84   42   44 am   BACKBONE|DICT|INTERRES
    85   44   45 1    
    86   44  110 1    
    87   45   46 1    
    88   45   47 1    
    89   45  111 1    
    90   46  112 1    
    91   46  113 1    
    92   46  114 1    
    93   47   48 2    
    94   47   49 am   BACKBONE|DICT|INTERRES
    95   49   50 1    
    96   49  115 1    
    97   50   51 1    
    98   50   52 1    
    99   50  116 1    
   100   51  117 1    
   101   51  118 1    
   102   51  119 1    
   103   52   53 2    
   104   52   54 am   BACKBONE|DICT|INTERRES
   105   54   55 1    
   106   54  120 1    
   107   55   56 1    
   108   55   57 1    
   109   55  121 1    
   110   56  122 1    
   111   56  123 1    
   112   56  124 1    
   113   57   58 2    
   114   57   59 am   BACKBONE|DICT|INTERRES
   115   59   60 1    
   116   59  125 1    
   117   60   61 1    
   118   60   62 1    
   119   60  126 1    
   120   61  127 1    
   121   61  128 1    
   122   61  129 1    
   123   62   63 2    
   124   62   64 am   BACKBONE|DICT|INTERRES
   125   64   65 1    
   126   64  130 1    
   127   65   66 1    
   128   65   69 1    
   129   65  131 1    
   130   66   67 am   BACKBONE|DICT|INTERRES
   131   66   68 2    
   132   67  132 1    
   133   67  133 1    
   134   69   70 1    
   135   69  134 1    
   136   69  135 1    
   137   70   71 1    
   138   71  136 1    
   139   71  137 1    
@<TRIPOS>SUBSTRUCTURE
     1 UNK         1 GROUP             0       ****    0 ROOT    
