@<TRIPOS>MOLECULE
3R137
137   139    1
SMALL
USER_CHARGES


@<TRIPOS>ATOM
      1 CA         25.5298   -7.9472   -0.7660 C.3       0 UNK        -0.2020 
      2 C          25.9088   -6.6201   -0.1261 C.2       0 UNK         0.4855 
      3 O          25.3434   -6.2546    0.9047 O.2       0 UNK        -0.5197 
      4 N          26.8621   -5.8960   -0.7287 N.am      1 UNK        -0.4892 
      5 CA         27.3362   -4.5827   -0.2643 C.3       1 UNK         0.0835 
      6 C6         28.7137   -4.2315   -0.8857 C.3       12 UNK        -0.0855 
      7 S7         29.8378   -3.4210    0.3020 S.3       12 UNK        -0.2931 
      8 C8         31.4654   -3.7945   -0.4316 C.3       12 UNK         0.0378 
      9 C9         31.6711   -3.0271   -1.7288 C.ar      12 UNK        -0.0802 
     10 C10        32.2352   -1.7477   -1.7081 C.ar      12 UNK        -0.0944 
     11 C11        32.3657   -1.0073   -2.8877 C.ar      12 UNK        -0.0787 
     12 C12        31.9286   -1.5655   -4.0928 C.ar      12 UNK        -0.0862 
     13 C13        31.3607   -2.8431   -4.1270 C.ar      12 UNK        -0.0733 
     14 C14        31.2572   -3.5783   -2.9449 C.ar      12 UNK        -0.0832 
     15 C15        30.8126   -3.4130   -5.4292 C.3       12 UNK         0.0240 
     16 S16        28.9927   -3.2649   -5.5143 S.3       12 UNK        -0.2522 
     17 C17        28.7738   -1.4563   -5.4681 C.3       12 UNK        -0.0967 
     18 CA         27.9169   -0.9177   -6.6366 C.3       5 UNK         0.0660 
     19 N          26.4804   -1.0950   -6.4039 N.am      5 UNK        -0.4015 
     20 C          25.5274   -0.8128   -7.3073 C.2       4 UNK         0.4946 
     21 O          25.7638   -0.4422   -8.4564 O.2       4 UNK        -0.5353 
     22 CA         24.0618   -0.8869   -6.8401 C.3       4 UNK         0.0277 
     23 CB         23.5009   -2.3011   -7.0560 C.3       4 UNK        -0.1981 
     24 N          23.8735   -0.4960   -5.4410 N.am      4 UNK        -0.4209 
     25 C          24.2661    0.6645   -4.8944 C.2       3 UNK         0.4942 
     26 O          24.7410    1.5942   -5.5473 O.2       3 UNK        -0.5208 
     27 CA         24.1714    0.7994   -3.3621 C.3       3 UNK         0.0250 
     28 CB         23.0475    1.7762   -2.9811 C.3       3 UNK        -0.1990 
     29 N          23.9770   -0.4663   -2.6405 N.am      3 UNK        -0.4232 
     30 C          24.8204   -1.5098   -2.6376 C.2       2 UNK         0.4993 
     31 O          25.8755   -1.5444   -3.2776 O.2       2 UNK        -0.5286 
     32 CA         24.3378   -2.7483   -1.8660 C.3       2 UNK         0.0209 
     33 CB         23.3161   -3.5333   -2.7075 C.3       2 UNK        -0.1931 
     34 N          25.4324   -3.6504   -1.5109 N.am      2 UNK        -0.4546 
     35 C          26.2957   -3.4623   -0.5029 C.2       1 UNK         0.5154 
     36 O          26.2677   -2.4813    0.2425 O.2       1 UNK        -0.5181 
     37 C          28.2910    0.5529   -6.9058 C.2       5 UNK         0.5014 
     38 O          29.1253    0.8042   -7.7759 O.2       5 UNK        -0.5248 
     39 N          27.6897    1.4905   -6.1603 N.am      6 UNK        -0.4434 
     40 CA         27.9213    2.9271   -6.3161 C.3       6 UNK         0.0363 
     41 CB         27.4409    3.6774   -5.0634 C.3       6 UNK        -0.1936 
     42 C          27.2458    3.4742   -7.5811 C.2       6 UNK         0.5081 
     43 O          27.8400    4.3043   -8.2677 O.2       6 UNK        -0.5248 
     44 N          26.0413    2.9708   -7.8882 N.am      7 UNK        -0.4718 
     45 CA         25.2928    3.2889   -9.1074 C.3       7 UNK         0.0273 
     46 CB         23.8789    2.6942   -9.0148 C.3       7 UNK        -0.1935 
     47 C          26.0061    2.8111  -10.3850 C.2       7 UNK         0.5018 
     48 O          26.0641    3.5597  -11.3611 O.2       7 UNK        -0.5186 
     49 N          26.5557    1.5889  -10.3474 N.am      8 UNK        -0.4240 
     50 CA         27.3472    1.0001  -11.4312 C.3       8 UNK         0.0235 
     51 CB         27.3902   -0.5257  -11.2428 C.3       8 UNK        -0.2000 
     52 C          28.7807    1.5548  -11.5253 C.2       8 UNK         0.4941 
     53 O          29.4141    1.3738  -12.5659 O.2       8 UNK        -0.5273 
     54 N          29.2734    2.1769  -10.4419 N.am      9 UNK        -0.4262 
     55 CA         30.6596    2.6060  -10.2090 C.3       9 UNK         0.0264 
     56 CB         31.0646    3.7423  -11.1716 C.3       9 UNK        -0.1955 
     57 C          31.6326    1.4089  -10.2274 C.2       9 UNK         0.5031 
     58 O          32.6793    1.4598  -10.8761 O.2       9 UNK        -0.5390 
     59 N          31.2396    0.3366   -9.5283 N.am      10 UNK        -0.4204 
     60 CA         31.9202   -0.9597   -9.5077 C.3       10 UNK         0.0237 
     61 CB         30.8718   -2.0566   -9.2564 C.3       10 UNK        -0.1985 
     62 C          33.0549   -1.0513   -8.4722 C.2       10 UNK         0.4970 
     63 O          33.8148   -2.0197   -8.5135 O.2       10 UNK        -0.4914 
     64 N          33.1420   -0.0801   -7.5535 N.am      11 UNK        -0.4285 
     65 CA         34.1835    0.0013   -6.5189 C.3       11 UNK         0.1007 
     66 C          35.6047    0.2305   -7.1070 C.2       11 UNK         0.5703 
     67 N          36.6302   -0.3599   -6.5087 N.am      11 UNK        -0.7361 
     68 O          35.7863    0.9667   -8.0751 O.2       11 UNK        -0.4986 
     69 C69        33.8227    1.0722   -5.4537 C.3       12 UNK        -0.0947 
     70 S70        34.4468    0.6375   -3.7924 S.3       12 UNK        -0.2240 
     71 C71        32.9087    0.4175   -2.8378 C.3       12 UNK         0.0194 
     72 H72        24.4749   -7.9438   -1.0392 H         1 UNK         0.0906 
     73 H73        25.6969   -8.7634   -0.0637 H         1 UNK         0.0906 
     74 H74        26.1121   -8.1495   -1.6648 H         1 UNK         0.0906 
     75 H75        27.2956   -6.2522   -1.5693 H         1 UNK         0.3140 
     76 H76        27.4554   -4.6643    0.8190 H         1 UNK         0.1085 
     77 H77        28.6130   -3.6072   -1.7768 H         1 UNK         0.0836 
     78 H78        29.2120   -5.1426   -1.2203 H         1 UNK         0.0836 
     79 H79        32.2448   -3.5289    0.2844 H         1 UNK         0.0731 
     80 H80        31.5616   -4.8683   -0.5999 H         1 UNK         0.0731 
     81 H81        32.5432   -1.3173   -0.7647 H         1 UNK         0.1312 
     82 H82        31.9992   -0.9920   -5.0037 H         1 UNK         0.1406 
     83 H83        30.8106   -4.5627   -2.9688 H         1 UNK         0.1631 
     84 H84        31.0864   -4.4658   -5.5119 H         1 UNK         0.0717 
     85 H85        31.2639   -2.9137   -6.2874 H         1 UNK         0.0717 
     86 H86        28.3491   -1.1758   -4.5021 H         1 UNK         0.0934 
     87 H87        29.7613   -0.9988   -5.4948 H         1 UNK         0.0934 
     88 H88        28.1665   -1.4722   -7.5433 H         1 UNK         0.0739 
     89 H89        26.2075   -1.3861   -5.4718 H         1 UNK         0.3093 
     90 H90        23.4851   -0.1915   -7.4521 H         1 UNK         0.0818 
     91 H91        23.6110   -2.6085   -8.0971 H         1 UNK         0.0819 
     92 H92        24.0172   -3.0402   -6.4418 H         1 UNK         0.0819 
     93 H93        22.4381   -2.3484   -6.8179 H         1 UNK         0.0819 
     94 H94        23.4868   -1.1950   -4.8253 H         1 UNK         0.3041 
     95 H95        25.1200    1.2229   -3.0256 H         1 UNK         0.0784 
     96 H96        23.1822    2.7396   -3.4757 H         1 UNK         0.0793 
     97 H97        22.0667    1.3965   -3.2704 H         1 UNK         0.0793 
     98 H98        23.0325    1.9669   -1.9078 H         1 UNK         0.0793 
     99 H99        23.1228   -0.5397   -2.1057 H         1 UNK         0.3024 
    100 H100       23.8559   -2.4146   -0.9437 H         1 UNK         0.1171 
    101 H101       22.4474   -2.9205   -2.9520 H         1 UNK         0.0786 
    102 H102       23.7471   -3.8791   -3.6482 H         1 UNK         0.0786 
    103 H103       22.9474   -4.4064   -2.1683 H         1 UNK         0.0786 
    104 H104       25.5482   -4.4722   -2.0847 H         1 UNK         0.2977 
    105 H105       26.9576    1.2178   -5.5186 H         1 UNK         0.3127 
    106 H106       28.9968    3.0922   -6.4146 H         1 UNK         0.0770 
    107 H107       26.3660    3.5764   -4.9120 H         1 UNK         0.0814 
    108 H108       27.6567    4.7435   -5.1452 H         1 UNK         0.0814 
    109 H109       27.9423    3.3141   -4.1663 H         1 UNK         0.0814 
    110 H110       25.6076    2.3289   -7.2313 H         1 UNK         0.2983 
    111 H111       25.2027    4.3759   -9.1657 H         1 UNK         0.0947 
    112 H112       23.9004    1.6049   -8.9861 H         1 UNK         0.0806 
    113 H113       23.2782    2.9844   -9.8777 H         1 UNK         0.0806 
    114 H114       23.3575    3.0431   -8.1231 H         1 UNK         0.0806 
    115 H115       26.3917    1.0004   -9.5329 H         1 UNK         0.3000 
    116 H116       26.8498    1.2143  -12.3796 H         1 UNK         0.0850 
    117 H117       27.9482   -1.0067  -12.0474 H         1 UNK         0.0810 
    118 H118       26.3875   -0.9537  -11.2425 H         1 UNK         0.0810 
    119 H119       27.8699   -0.7999  -10.3022 H         1 UNK         0.0810 
    120 H120       28.6655    2.2453   -9.6362 H         1 UNK         0.3040 
    121 H121       30.6863    3.0084   -9.1951 H         1 UNK         0.0766 
    122 H122       31.1117    3.4030  -12.2067 H         1 UNK         0.0812 
    123 H123       32.0488    4.1362  -10.9154 H         1 UNK         0.0812 
    124 H124       30.3598    4.5723  -11.1217 H         1 UNK         0.0812 
    125 H125       30.3866    0.4196   -8.9735 H         1 UNK         0.3205 
    126 H126       32.3661   -1.1375  -10.4887 H         1 UNK         0.0754 
    127 H127       31.3289   -3.0472   -9.2555 H         1 UNK         0.0769 
    128 H128       30.1055   -2.0567  -10.0316 H         1 UNK         0.0769 
    129 H129       30.3763   -1.9248   -8.2952 H         1 UNK         0.0769 
    130 H130       32.5037    0.6977   -7.6163 H         1 UNK         0.2981 
    131 H131       34.1880   -0.9771   -6.0337 H         1 UNK         0.0541 
    132 H132       37.5604   -0.2114   -6.8672 H         1 UNK         0.3459 
    133 H133       36.4919   -0.9390   -5.6952 H         1 UNK         0.3459 
    134 H134       32.7416    1.2017   -5.3929 H         1 UNK         0.0612 
    135 H135       34.2094    2.0554   -5.7292 H         1 UNK         0.0612 
    136 H136       32.1439    1.1142   -3.1828 H         1 UNK         0.0624 
    137 H137       33.1205    0.7002   -1.8056 H         1 UNK         0.0624 
@<TRIPOS>BOND
     1    1    2 1    
     2    1   72 1    
     3    1   73 1    
     4    1   74 1    
     5    2    3 2    
     6    2    4 am   BACKBONE|DICT|INTERRES
     7    4    5 1    
     8    4   75 1    
     9    5    6 1    
    10    5   35 1    
    11    5   76 1    
    12    6    7 1    
    13    6   77 1    
    14    6   78 1    
    15    7    8 1    
    16    8    9 1    
    17    8   79 1    
    18    8   80 1    
    19    9   10 ar   
    20    9   14 ar   
    21   10   11 ar   
    22   10   81 1    
    23   11   12 ar   
    24   11   71 1    
    25   12   13 ar   
    26   12   82 1    
    27   13   14 ar   
    28   13   15 1    
    29   14   83 1    
    30   15   16 1    
    31   15   84 1    
    32   15   85 1    
    33   16   17 1    
    34   17   18 1    
    35   17   86 1    
    36   17   87 1    
    37   18   19 1    
    38   18   37 1    
    39   18   88 1    
    40   19   20 am   BACKBONE|DICT|INTERRES
    41   19   89 1    
    42   20   21 2    
    43   20   22 1    
    44   22   23 1    
    45   22   24 1    
    46   22   90 1    
    47   23   91 1    
    48   23   92 1    
    49   23   93 1    
    50   24   25 am   BACKBONE|DICT|INTERRES
    51   24   94 1    
    52   25   26 2    
    53   25   27 1    
    54   27   28 1    
    55   27   29 1    
    56   27   95 1    
    57   28   96 1    
    58   28   97 1    
    59   28   98 1    
    60   29   30 am   BACKBONE|DICT|INTERRES
    61   29   99 1    
    62   30   31 2    
    63   30   32 1    
    64   32   33 1    
    65   32   34 1    
    66   32  100 1    
    67   33  101 1    
    68   33  102 1    
    69   33  103 1    
    70   34   35 am   BACKBONE|DICT|INTERRES
    71   34  104 1    
    72   35   36 2    
    73   37   38 2    
    74   37   39 am   BACKBONE|DICT|INTERRES
    75   39   40 1    
    76   39  105 1    
    77   40   41 1    
    78   40   42 1    
    79   40  106 1    
    80   41  107 1    
    81   41  108 1    
    82   41  109 1    
    83   42   43 2    
    84   42   44 am   BACKBONE|DICT|INTERRES
    85   44   45 1    
    86   44  110 1    
    87   45   46 1    
    88   45   47 1    
    89   45  111 1    
    90   46  112 1    
    91   46  113 1    
    92   46  114 1    
    93   47   48 2    
    94   47   49 am   BACKBONE|DICT|INTERRES
    95   49   50 1    
    96   49  115 1    
    97   50   51 1    
    98   50   52 1    
    99   50  116 1    
   100   51  117 1    
   101   51  118 1    
   102   51  119 1    
   103   52   53 2    
   104   52   54 am   BACKBONE|DICT|INTERRES
   105   54   55 1    
   106   54  120 1    
   107   55   56 1    
   108   55   57 1    
   109   55  121 1    
   110   56  122 1    
   111   56  123 1    
   112   56  124 1    
   113   57   58 2    
   114   57   59 am   BACKBONE|DICT|INTERRES
   115   59   60 1    
   116   59  125 1    
   117   60   61 1    
   118   60   62 1    
   119   60  126 1    
   120   61  127 1    
   121   61  128 1    
   122   61  129 1    
   123   62   63 2    
   124   62   64 am   BACKBONE|DICT|INTERRES
   125   64   65 1    
   126   64  130 1    
   127   65   66 1    
   128   65   69 1    
   129   65  131 1    
   130   66   67 am   BACKBONE|DICT|INTERRES
   131   66   68 2    
   132   67  132 1    
   133   67  133 1    
   134   69   70 1    
   135   69  134 1    
   136   69  135 1    
   137   70   71 1    
   138   71  136 1    
   139   71  137 1    
@<TRIPOS>SUBSTRUCTURE
     1 UNK         1 GROUP             0       ****    0 ROOT    
