@<TRIPOS>MOLECULE
3R137
137   139    1
SMALL
USER_CHARGES


@<TRIPOS>ATOM
      1 CA         24.6784   -7.0195   -3.9625 C.3       0 UNK        -0.2020 
      2 C          25.2920   -6.4751   -2.6811 C.2       0 UNK         0.4855 
      3 O          25.0868   -7.0478   -1.6107 O.2       0 UNK        -0.5197 
      4 N          26.0406   -5.3733   -2.7815 N.am      1 UNK        -0.4892 
      5 CA         26.6862   -4.6817   -1.6698 C.3       1 UNK         0.0835 
      6 C6         28.1076   -5.2401   -1.4152 C.3       12 UNK        -0.0855 
      7 S7         28.9775   -4.4469   -0.0188 S.3       12 UNK        -0.2931 
      8 C8         30.6548   -4.2381   -0.7006 C.3       12 UNK         0.0378 
      9 C9         30.7246   -3.1494   -1.7642 C.ar      12 UNK        -0.0802 
     10 C10        30.7772   -3.4856   -3.1203 C.ar      12 UNK        -0.0944 
     11 C11        30.8801   -2.4904   -4.0952 C.ar      12 UNK        -0.0787 
     12 C12        30.9340   -1.1491   -3.7045 C.ar      12 UNK        -0.0862 
     13 C13        30.8894   -0.7932   -2.3500 C.ar      12 UNK        -0.0733 
     14 C14        30.7802   -1.8039   -1.3886 C.ar      12 UNK        -0.0832 
     15 C15        30.9996    0.6590   -1.8764 C.3       12 UNK         0.0240 
     16 S16        30.5344    1.9364   -3.0992 S.3       12 UNK        -0.2522 
     17 C17        28.7745    1.5526   -3.3641 C.3       12 UNK        -0.0967 
     18 CA         28.4253    1.4032   -4.8721 C.3       5 UNK         0.0660 
     19 N          27.7546    0.1343   -5.1629 N.am      5 UNK        -0.4015 
     20 C          27.5127   -0.3429   -6.3914 C.2       4 UNK         0.4946 
     21 O          27.9370    0.1774   -7.4232 O.2       4 UNK        -0.5353 
     22 CA         26.6060   -1.5815   -6.4851 C.3       4 UNK         0.0277 
     23 CB         27.4357   -2.8741   -6.4676 C.3       4 UNK        -0.1981 
     24 N          25.6132   -1.6172   -5.4067 N.am      4 UNK        -0.4209 
     25 C          24.5360   -0.8182   -5.3535 C.2       3 UNK         0.4942 
     26 O          24.2451   -0.0145   -6.2372 O.2       3 UNK        -0.5208 
     27 CA         23.6589   -0.8836   -4.0887 C.3       3 UNK         0.0250 
     28 CB         22.5756   -1.9625   -4.2436 C.3       3 UNK        -0.1990 
     29 N          24.4187   -1.1298   -2.8606 N.am      3 UNK        -0.4232 
     30 C          25.3950   -0.3418   -2.3882 C.2       2 UNK         0.4993 
     31 O          25.7014    0.7380   -2.8943 O.2       2 UNK        -0.5286 
     32 CA         26.2137   -0.8704   -1.1942 C.3       2 UNK         0.0209 
     33 CB         25.6868   -0.2720    0.1191 C.3       2 UNK        -0.1931 
     34 N          26.2741   -2.3347   -1.0728 N.am      2 UNK        -0.4546 
     35 C          26.6729   -3.1880   -2.0286 C.2       1 UNK         0.5154 
     36 O          26.9774   -2.8425   -3.1732 O.2       1 UNK        -0.5181 
     37 C          27.5799    2.5878   -5.3794 C.2       5 UNK         0.5014 
     38 O          28.0934    3.4344   -6.1111 O.2       5 UNK        -0.5248 
     39 N          26.2867    2.5932   -5.0195 N.am      6 UNK        -0.4434 
     40 CA         25.2932    3.5822   -5.4504 C.3       6 UNK         0.0363 
     41 CB         23.9671    3.3287   -4.7166 C.3       6 UNK        -0.1936 
     42 C          25.0757    3.6087   -6.9746 C.2       6 UNK         0.5081 
     43 O          24.9228    4.6890   -7.5446 O.2       6 UNK        -0.5248 
     44 N          25.0994    2.4296   -7.6113 N.am      7 UNK        -0.4718 
     45 CA         25.0306    2.2584   -9.0664 C.3       7 UNK         0.0273 
     46 CB         24.6556    0.8009   -9.3810 C.3       7 UNK        -0.1935 
     47 C          26.3259    2.6445   -9.8084 C.2       7 UNK         0.5018 
     48 O          26.2980    2.7153  -11.0379 O.2       7 UNK        -0.5186 
     49 N          27.4224    2.8734   -9.0687 N.am      8 UNK        -0.4240 
     50 CA         28.7731    3.1896   -9.5438 C.3       8 UNK         0.0235 
     51 CB         28.8083    4.5652  -10.2444 C.3       8 UNK        -0.2000 
     52 C          29.3764    2.0540  -10.3919 C.2       8 UNK         0.4941 
     53 O          29.8420    2.2914  -11.5094 O.2       8 UNK        -0.5273 
     54 N          29.3468    0.8333   -9.8394 N.am      9 UNK        -0.4262 
     55 CA         29.9632   -0.3686  -10.4066 C.3       9 UNK         0.0264 
     56 CB         29.4370   -1.5939   -9.6361 C.3       9 UNK        -0.1955 
     57 C          31.5055   -0.3222  -10.3803 C.2       9 UNK         0.5031 
     58 O          32.1019    0.6185   -9.8471 O.2       9 UNK        -0.5390 
     59 N          32.1255   -1.3817  -10.9221 N.am      10 UNK        -0.4204 
     60 CA         33.5760   -1.5888  -11.0578 C.3       10 UNK         0.0237 
     61 CB         33.8188   -2.9421  -11.7477 C.3       10 UNK        -0.1985 
     62 C          34.4071   -1.4931   -9.7601 C.2       10 UNK         0.4970 
     63 O          35.6290   -1.3624   -9.8475 O.2       10 UNK        -0.4914 
     64 N          33.7486   -1.5361   -8.5950 N.am      11 UNK        -0.4285 
     65 CA         34.3242   -1.2054   -7.2827 C.3       11 UNK         0.1007 
     66 C          34.8509    0.2568   -7.1705 C.2       11 UNK         0.5703 
     67 N          34.3367    1.2048   -7.9477 N.am      11 UNK        -0.7361 
     68 O          35.7377    0.5300   -6.3652 O.2       11 UNK        -0.4986 
     69 C69        33.3215   -1.4764   -6.1321 C.3       12 UNK        -0.0947 
     70 S70        32.6491   -3.1716   -6.1204 S.3       12 UNK        -0.2240 
     71 C71        30.9407   -2.8682   -5.5689 C.3       12 UNK         0.0194 
     72 H72        23.5918   -7.0347   -3.8813 H         1 UNK         0.0906 
     73 H73        24.9451   -6.4176   -4.8312 H         1 UNK         0.0906 
     74 H74        25.0212   -8.0388   -4.1388 H         1 UNK         0.0906 
     75 H75        26.1682   -4.9135   -3.6744 H         1 UNK         0.3140 
     76 H76        26.0878   -4.8214   -0.7664 H         1 UNK         0.1085 
     77 H77        28.0458   -6.3074   -1.1969 H         1 UNK         0.0836 
     78 H78        28.7044   -5.1612   -2.3240 H         1 UNK         0.0836 
     79 H79        31.0050   -5.1916   -1.0995 H         1 UNK         0.0731 
     80 H80        31.3344   -3.9870    0.1153 H         1 UNK         0.0731 
     81 H81        30.7501   -4.5241   -3.4203 H         1 UNK         0.1312 
     82 H82        31.0246   -0.3857   -4.4625 H         1 UNK         0.1406 
     83 H83        30.7529   -1.5461   -0.3382 H         1 UNK         0.1631 
     84 H84        32.0308    0.8402   -1.5711 H         1 UNK         0.0717 
     85 H85        30.3855    0.8041   -0.9860 H         1 UNK         0.0717 
     86 H86        28.5427    0.6331   -2.8286 H         1 UNK         0.0934 
     87 H87        28.1790    2.3197   -2.8638 H         1 UNK         0.0934 
     88 H88        29.3467    1.3992   -5.4592 H         1 UNK         0.0739 
     89 H89        27.3511   -0.3543   -4.3771 H         1 UNK         0.3093 
     90 H90        26.0767   -1.5355   -7.4386 H         1 UNK         0.0818 
     91 H91        28.0124   -2.9725   -5.5483 H         1 UNK         0.0819 
     92 H92        26.7998   -3.7545   -6.5595 H         1 UNK         0.0819 
     93 H93        28.1403   -2.8983   -7.2987 H         1 UNK         0.0819 
     94 H94        25.8390   -2.2012   -4.6067 H         1 UNK         0.3041 
     95 H95        23.1658    0.0845   -3.9810 H         1 UNK         0.0784 
     96 H96        21.9805   -1.7905   -5.1418 H         1 UNK         0.0793 
     97 H97        23.0067   -2.9613   -4.3247 H         1 UNK         0.0793 
     98 H98        21.8883   -1.9600   -3.3973 H         1 UNK         0.0793 
     99 H99        24.2323   -1.9946   -2.3748 H         1 UNK         0.3024 
    100 H100       27.2393   -0.5261   -1.3332 H         1 UNK         0.1171 
    101 H101       25.6571    0.8176    0.0679 H         1 UNK         0.0786 
    102 H102       26.3269   -0.5357    0.9614 H         1 UNK         0.0786 
    103 H103       24.6761   -0.6156    0.3429 H         1 UNK         0.0786 
    104 H104       26.0430   -2.7112   -0.1641 H         1 UNK         0.2977 
    105 H105       25.9672    1.8763   -4.3704 H         1 UNK         0.3127 
    106 H106       25.6641    4.5657   -5.1545 H         1 UNK         0.0770 
    107 H107       23.5423    2.3586   -4.9755 H         1 UNK         0.0814 
    108 H108       23.2276    4.0875   -4.9757 H         1 UNK         0.0814 
    109 H109       24.0986    3.3587   -3.6348 H         1 UNK         0.0814 
    110 H110       25.1321    1.5789   -7.0570 H         1 UNK         0.2983 
    111 H111       24.2372    2.9048   -9.4479 H         1 UNK         0.0947 
    112 H112       24.5334    0.6495  -10.4543 H         1 UNK         0.0806 
    113 H113       23.7152    0.5197   -8.9066 H         1 UNK         0.0806 
    114 H114       25.4258    0.1087   -9.0406 H         1 UNK         0.0806 
    115 H115       27.3357    2.7799   -8.0634 H         1 UNK         0.3000 
    116 H116       29.3970    3.2633   -8.6515 H         1 UNK         0.0850 
    117 H117       29.8318    4.8474  -10.4939 H         1 UNK         0.0810 
    118 H118       28.4040    5.3468   -9.6012 H         1 UNK         0.0810 
    119 H119       28.2372    4.5652  -11.1732 H         1 UNK         0.0810 
    120 H120       28.9078    0.7204   -8.9269 H         1 UNK         0.3040 
    121 H121       29.6483   -0.4472  -11.4492 H         1 UNK         0.0766 
    122 H122       28.3468   -1.6113   -9.6199 H         1 UNK         0.0812 
    123 H123       29.7849   -1.5925   -8.6025 H         1 UNK         0.0812 
    124 H124       29.7609   -2.5308  -10.0899 H         1 UNK         0.0812 
    125 H125       31.5469   -2.1070  -11.3210 H         1 UNK         0.3205 
    126 H126       33.9450   -0.8007  -11.7171 H         1 UNK         0.0754 
    127 H127       34.8842   -3.1181  -11.9047 H         1 UNK         0.0769 
    128 H128       33.3417   -2.9819  -12.7273 H         1 UNK         0.0769 
    129 H129       33.4366   -3.7719  -11.1517 H         1 UNK         0.0769 
    130 H130       32.7481   -1.6525   -8.6176 H         1 UNK         0.2981 
    131 H131       35.1848   -1.8613   -7.1391 H         1 UNK         0.0541 
    132 H132       33.5930    0.9891   -8.6057 H         1 UNK         0.3459 
    133 H133       34.6827    2.1475   -7.8717 H         1 UNK         0.3459 
    134 H134       33.7914   -1.3017   -5.1622 H         1 UNK         0.0612 
    135 H135       32.4939   -0.7692   -6.2043 H         1 UNK         0.0612 
    136 H136       30.4844   -2.0903   -6.1829 H         1 UNK         0.0624 
    137 H137       30.3570   -3.7735   -5.7411 H         1 UNK         0.0624 
@<TRIPOS>BOND
     1    1    2 1    
     2    1   72 1    
     3    1   73 1    
     4    1   74 1    
     5    2    3 2    
     6    2    4 am   BACKBONE|DICT|INTERRES
     7    4    5 1    
     8    4   75 1    
     9    5    6 1    
    10    5   35 1    
    11    5   76 1    
    12    6    7 1    
    13    6   77 1    
    14    6   78 1    
    15    7    8 1    
    16    8    9 1    
    17    8   79 1    
    18    8   80 1    
    19    9   10 ar   
    20    9   14 ar   
    21   10   11 ar   
    22   10   81 1    
    23   11   12 ar   
    24   11   71 1    
    25   12   13 ar   
    26   12   82 1    
    27   13   14 ar   
    28   13   15 1    
    29   14   83 1    
    30   15   16 1    
    31   15   84 1    
    32   15   85 1    
    33   16   17 1    
    34   17   18 1    
    35   17   86 1    
    36   17   87 1    
    37   18   19 1    
    38   18   37 1    
    39   18   88 1    
    40   19   20 am   BACKBONE|DICT|INTERRES
    41   19   89 1    
    42   20   21 2    
    43   20   22 1    
    44   22   23 1    
    45   22   24 1    
    46   22   90 1    
    47   23   91 1    
    48   23   92 1    
    49   23   93 1    
    50   24   25 am   BACKBONE|DICT|INTERRES
    51   24   94 1    
    52   25   26 2    
    53   25   27 1    
    54   27   28 1    
    55   27   29 1    
    56   27   95 1    
    57   28   96 1    
    58   28   97 1    
    59   28   98 1    
    60   29   30 am   BACKBONE|DICT|INTERRES
    61   29   99 1    
    62   30   31 2    
    63   30   32 1    
    64   32   33 1    
    65   32   34 1    
    66   32  100 1    
    67   33  101 1    
    68   33  102 1    
    69   33  103 1    
    70   34   35 am   BACKBONE|DICT|INTERRES
    71   34  104 1    
    72   35   36 2    
    73   37   38 2    
    74   37   39 am   BACKBONE|DICT|INTERRES
    75   39   40 1    
    76   39  105 1    
    77   40   41 1    
    78   40   42 1    
    79   40  106 1    
    80   41  107 1    
    81   41  108 1    
    82   41  109 1    
    83   42   43 2    
    84   42   44 am   BACKBONE|DICT|INTERRES
    85   44   45 1    
    86   44  110 1    
    87   45   46 1    
    88   45   47 1    
    89   45  111 1    
    90   46  112 1    
    91   46  113 1    
    92   46  114 1    
    93   47   48 2    
    94   47   49 am   BACKBONE|DICT|INTERRES
    95   49   50 1    
    96   49  115 1    
    97   50   51 1    
    98   50   52 1    
    99   50  116 1    
   100   51  117 1    
   101   51  118 1    
   102   51  119 1    
   103   52   53 2    
   104   52   54 am   BACKBONE|DICT|INTERRES
   105   54   55 1    
   106   54  120 1    
   107   55   56 1    
   108   55   57 1    
   109   55  121 1    
   110   56  122 1    
   111   56  123 1    
   112   56  124 1    
   113   57   58 2    
   114   57   59 am   BACKBONE|DICT|INTERRES
   115   59   60 1    
   116   59  125 1    
   117   60   61 1    
   118   60   62 1    
   119   60  126 1    
   120   61  127 1    
   121   61  128 1    
   122   61  129 1    
   123   62   63 2    
   124   62   64 am   BACKBONE|DICT|INTERRES
   125   64   65 1    
   126   64  130 1    
   127   65   66 1    
   128   65   69 1    
   129   65  131 1    
   130   66   67 am   BACKBONE|DICT|INTERRES
   131   66   68 2    
   132   67  132 1    
   133   67  133 1    
   134   69   70 1    
   135   69  134 1    
   136   69  135 1    
   137   70   71 1    
   138   71  136 1    
   139   71  137 1    
@<TRIPOS>SUBSTRUCTURE
     1 UNK         1 GROUP             0       ****    0 ROOT    
