@<TRIPOS>MOLECULE
3R137
137   139    1
SMALL
USER_CHARGES


@<TRIPOS>ATOM
      1 CA         22.3573   -4.6782   -0.7320 C.3       0 UNK        -0.2020 
      2 C          23.6764   -4.2947   -1.3842 C.2       0 UNK         0.4855 
      3 O          23.6691   -3.6988   -2.4614 O.2       0 UNK        -0.5197 
      4 N          24.8035   -4.6156   -0.7297 N.am      1 UNK        -0.4892 
      5 CA         26.1798   -4.3594   -1.1811 C.3       1 UNK         0.0835 
      6 C6         26.5876   -5.2940   -2.3532 C.3       12 UNK        -0.0855 
      7 S7         28.3973   -5.4452   -2.5609 S.3       12 UNK        -0.2931 
      8 C8         28.6454   -4.7189   -4.2155 C.3       12 UNK         0.0378 
      9 C9         29.9057   -3.8713   -4.2701 C.ar      12 UNK        -0.0802 
     10 C10        31.0154   -4.2673   -5.0226 C.ar      12 UNK        -0.0944 
     11 C11        32.1542   -3.4560   -5.0818 C.ar      12 UNK        -0.0787 
     12 C12        32.1739   -2.2408   -4.3861 C.ar      12 UNK        -0.0862 
     13 C13        31.0686   -1.8378   -3.6304 C.ar      12 UNK        -0.0733 
     14 C14        29.9460   -2.6632   -3.5731 C.ar      12 UNK        -0.0832 
     15 C15        31.0916   -0.5307   -2.8505 C.3       12 UNK         0.0240 
     16 S16        30.3660    0.8511   -3.7910 S.3       12 UNK        -0.2522 
     17 C17        28.5666    0.5489   -3.6593 C.3       12 UNK        -0.0967 
     18 CA         27.9064    0.2613   -5.0348 C.3       5 UNK         0.0660 
     19 N          26.7317   -0.6164   -4.9072 N.am      5 UNK        -0.4015 
     20 C          25.9744   -1.0616   -5.9222 C.2       4 UNK         0.4946 
     21 O          26.2298   -0.8446   -7.1054 O.2       4 UNK        -0.5353 
     22 CA         24.6727   -1.8066   -5.5800 C.3       4 UNK         0.0277 
     23 CB         24.8733   -3.3235   -5.6665 C.3       4 UNK        -0.1981 
     24 N          24.1155   -1.4464   -4.2726 N.am      4 UNK        -0.4209 
     25 C          23.6400   -0.2283   -3.9712 C.2       3 UNK         0.4942 
     26 O          23.6131    0.7091   -4.7687 O.2       3 UNK        -0.5208 
     27 CA         23.1717    0.0001   -2.5264 C.3       3 UNK         0.0250 
     28 CB         21.8126   -0.6693   -2.2645 C.3       3 UNK        -0.1990 
     29 N          24.1646   -0.4735   -1.5611 N.am      3 UNK        -0.4232 
     30 C          25.3478    0.1208   -1.3474 C.2       2 UNK         0.4993 
     31 O          25.6912    1.1751   -1.8818 O.2       2 UNK        -0.5286 
     32 CA         26.3298   -0.5874   -0.3974 C.3       2 UNK         0.0209 
     33 CB         26.1747   -0.0484    1.0337 C.3       2 UNK        -0.1931 
     34 N          26.2006   -2.0488   -0.3826 N.am      2 UNK        -0.4546 
     35 C          26.4069   -2.8507   -1.4380 C.2       1 UNK         0.5154 
     36 O          26.6872   -2.4280   -2.5614 O.2       1 UNK        -0.5181 
     37 C          27.6155    1.5814   -5.7938 C.2       5 UNK         0.5014 
     38 O          28.5223    2.1281   -6.4215 O.2       5 UNK        -0.5248 
     39 N          26.3637    2.0685   -5.7521 N.am      6 UNK        -0.4434 
     40 CA         25.9191    3.2387   -6.5152 C.3       6 UNK         0.0363 
     41 CB         24.5646    3.7226   -5.9746 C.3       6 UNK        -0.1936 
     42 C          25.8318    2.9761   -8.0311 C.2       6 UNK         0.5081 
     43 O          25.9935    3.9163   -8.8096 O.2       6 UNK        -0.5248 
     44 N          25.5803    1.7199   -8.4256 N.am      7 UNK        -0.4718 
     45 CA         25.5731    1.2748   -9.8200 C.3       7 UNK         0.0273 
     46 CB         24.5240    0.1655  -10.0023 C.3       7 UNK        -0.1935 
     47 C          26.9660    0.7855  -10.2413 C.2       7 UNK         0.5018 
     48 O          27.4339    1.1405  -11.3245 O.2       7 UNK        -0.5186 
     49 N          27.6193    0.0036   -9.3707 N.am      8 UNK        -0.4240 
     50 CA         28.9753   -0.5233   -9.5347 C.3       8 UNK         0.0235 
     51 CB         29.1352   -1.7691   -8.6415 C.3       8 UNK        -0.2000 
     52 C          30.0397    0.5552   -9.2523 C.2       8 UNK         0.4941 
     53 O          30.8416    0.4150   -8.3271 O.2       8 UNK        -0.5273 
     54 N          30.0227    1.6257  -10.0560 N.am      9 UNK        -0.4262 
     55 CA         30.9709    2.7370   -9.9962 C.3       9 UNK         0.0264 
     56 CB         30.5204    3.8409  -10.9663 C.3       9 UNK        -0.1955 
     57 C          32.4014    2.2744  -10.3202 C.2       9 UNK         0.5031 
     58 O          32.5960    1.5344  -11.2879 O.2       9 UNK        -0.5390 
     59 N          33.3630    2.7248   -9.5024 N.am      10 UNK        -0.4204 
     60 CA         34.7999    2.4180   -9.5619 C.3       10 UNK         0.0237 
     61 CB         35.4295    2.9582  -10.8650 C.3       10 UNK        -0.1985 
     62 C          35.1562    0.9369   -9.3019 C.2       10 UNK         0.4970 
     63 O          36.2666    0.5201   -9.6367 O.2       10 UNK        -0.4914 
     64 N          34.2397    0.1732   -8.6907 N.am      11 UNK        -0.4285 
     65 CA         34.4682   -1.1998   -8.2213 C.3       11 UNK         0.1007 
     66 C          35.4967   -1.2375   -7.0568 C.2       11 UNK         0.5703 
     67 N          36.4714   -2.1352   -7.1095 N.am      11 UNK        -0.7361 
     68 O          35.3958   -0.4798   -6.0934 O.2       11 UNK        -0.4986 
     69 C69        33.1212   -1.8579   -7.8307 C.3       12 UNK        -0.0947 
     70 S70        33.1866   -3.6740   -7.6692 S.3       12 UNK        -0.2240 
     71 C71        33.3755   -3.9079   -5.8710 C.3       12 UNK         0.0194 
     72 H72        21.7849   -5.3219   -1.3993 H         1 UNK         0.0906 
     73 H73        22.5042   -5.2094    0.2081 H         1 UNK         0.0906 
     74 H74        21.7656   -3.7859   -0.5299 H         1 UNK         0.0906 
     75 H75        24.7278   -5.0912    0.1597 H         1 UNK         0.3140 
     76 H76        26.8187   -4.6143   -0.3335 H         1 UNK         0.1085 
     77 H77        26.1015   -4.9991   -3.2806 H         1 UNK         0.0836 
     78 H78        26.2198   -6.3013   -2.1520 H         1 UNK         0.0836 
     79 H79        28.6747   -5.5175   -4.9583 H         1 UNK         0.0731 
     80 H80        27.8050   -4.0797   -4.4833 H         1 UNK         0.0731 
     81 H81        30.9961   -5.2039   -5.5631 H         1 UNK         0.1312 
     82 H82        33.0522   -1.6105   -4.4292 H         1 UNK         0.1406 
     83 H83        29.0968   -2.3733   -2.9762 H         1 UNK         0.1631 
     84 H84        32.1212   -0.2727   -2.5980 H         1 UNK         0.0717 
     85 H85        30.5697   -0.6446   -1.8990 H         1 UNK         0.0717 
     86 H86        28.4024   -0.2809   -2.9751 H         1 UNK         0.0934 
     87 H87        28.1028    1.4075   -3.1691 H         1 UNK         0.0934 
     88 H88        28.6195   -0.2989   -5.6421 H         1 UNK         0.0739 
     89 H89        26.4915   -0.9277   -3.9721 H         1 UNK         0.3093 
     90 H90        23.9366   -1.5251   -6.3361 H         1 UNK         0.0818 
     91 H91        25.6018   -3.6607   -4.9351 H         1 UNK         0.0819 
     92 H92        23.9420   -3.8608   -5.4864 H         1 UNK         0.0819 
     93 H93        25.2369   -3.6162   -6.6524 H         1 UNK         0.0819 
     94 H94        24.0925   -2.1794   -3.5661 H         1 UNK         0.3041 
     95 H95        23.0473    1.0761   -2.3840 H         1 UNK         0.0784 
     96 H96        21.0561   -0.2901   -2.9530 H         1 UNK         0.0793 
     97 H97        21.8544   -1.7506   -2.3947 H         1 UNK         0.0793 
     98 H98        21.4592   -0.4667   -1.2534 H         1 UNK         0.0793 
     99 H99        23.9800   -1.3548   -1.1050 H         1 UNK         0.3024 
    100 H100       27.3380   -0.3493   -0.7428 H         1 UNK         0.1171 
    101 H101       26.9298   -0.4660    1.7000 H         1 UNK         0.0786 
    102 H102       25.1931   -0.2799    1.4494 H         1 UNK         0.0786 
    103 H103       26.2905    1.0363    1.0568 H         1 UNK         0.0786 
    104 H104       25.9375   -2.4711    0.4966 H         1 UNK         0.2977 
    105 H105       25.6531    1.5706   -5.2280 H         1 UNK         0.3127 
    106 H106       26.6479    4.0376   -6.3614 H         1 UNK         0.0770 
    107 H107       23.7765    2.9881   -6.1439 H         1 UNK         0.0814 
    108 H108       24.2575    4.6457   -6.4680 H         1 UNK         0.0814 
    109 H109       24.6109    3.9261   -4.9046 H         1 UNK         0.0814 
    110 H110       25.5222    0.9918   -7.7228 H         1 UNK         0.2983 
    111 H111       25.2986    2.1073  -10.4721 H         1 UNK         0.0947 
    112 H112       24.4921   -0.1725  -11.0390 H         1 UNK         0.0806 
    113 H113       23.5256    0.5207   -9.7469 H         1 UNK         0.0806 
    114 H114       24.7371   -0.7060   -9.3822 H         1 UNK         0.0806 
    115 H115       27.1447   -0.2495   -8.5045 H         1 UNK         0.3000 
    116 H116       29.1018   -0.8410  -10.5719 H         1 UNK         0.0850 
    117 H117       30.1055   -2.2411   -8.7961 H         1 UNK         0.0810 
    118 H118       28.3739   -2.5171   -8.8630 H         1 UNK         0.0810 
    119 H119       29.0593   -1.5217   -7.5828 H         1 UNK         0.0810 
    120 H120       29.3126    1.6573  -10.7800 H         1 UNK         0.3040 
    121 H121       30.9431    3.1364   -8.9800 H         1 UNK         0.0766 
    122 H122       30.5044    3.4879  -11.9984 H         1 UNK         0.0812 
    123 H123       29.5218    4.2028  -10.7197 H         1 UNK         0.0812 
    124 H124       31.1951    4.6970  -10.9247 H         1 UNK         0.0812 
    125 H125       33.0847    3.3204   -8.7337 H         1 UNK         0.3205 
    126 H126       35.2507    2.9699   -8.7358 H         1 UNK         0.0754 
    127 H127       36.5174    2.8852  -10.8357 H         1 UNK         0.0769 
    128 H128       35.1828    4.0086  -11.0196 H         1 UNK         0.0769 
    129 H129       35.0921    2.4018  -11.7400 H         1 UNK         0.0769 
    130 H130       33.3475    0.5798   -8.4458 H         1 UNK         0.2981 
    131 H131       34.8803   -1.7566   -9.0654 H         1 UNK         0.0541 
    132 H132       37.1413   -2.1771   -6.3578 H         1 UNK         0.3459 
    133 H133       36.5535   -2.7676   -7.8902 H         1 UNK         0.3459 
    134 H134       32.3983   -1.6678   -8.6237 H         1 UNK         0.0612 
    135 H135       32.7002   -1.3994   -6.9360 H         1 UNK         0.0612 
    136 H136       34.2696   -3.3888   -5.5248 H         1 UNK         0.0624 
    137 H137       33.5531   -4.9669   -5.6785 H         1 UNK         0.0624 
@<TRIPOS>BOND
     1    1    2 1    
     2    1   72 1    
     3    1   73 1    
     4    1   74 1    
     5    2    3 2    
     6    2    4 am   BACKBONE|DICT|INTERRES
     7    4    5 1    
     8    4   75 1    
     9    5    6 1    
    10    5   35 1    
    11    5   76 1    
    12    6    7 1    
    13    6   77 1    
    14    6   78 1    
    15    7    8 1    
    16    8    9 1    
    17    8   79 1    
    18    8   80 1    
    19    9   10 ar   
    20    9   14 ar   
    21   10   11 ar   
    22   10   81 1    
    23   11   12 ar   
    24   11   71 1    
    25   12   13 ar   
    26   12   82 1    
    27   13   14 ar   
    28   13   15 1    
    29   14   83 1    
    30   15   16 1    
    31   15   84 1    
    32   15   85 1    
    33   16   17 1    
    34   17   18 1    
    35   17   86 1    
    36   17   87 1    
    37   18   19 1    
    38   18   37 1    
    39   18   88 1    
    40   19   20 am   BACKBONE|DICT|INTERRES
    41   19   89 1    
    42   20   21 2    
    43   20   22 1    
    44   22   23 1    
    45   22   24 1    
    46   22   90 1    
    47   23   91 1    
    48   23   92 1    
    49   23   93 1    
    50   24   25 am   BACKBONE|DICT|INTERRES
    51   24   94 1    
    52   25   26 2    
    53   25   27 1    
    54   27   28 1    
    55   27   29 1    
    56   27   95 1    
    57   28   96 1    
    58   28   97 1    
    59   28   98 1    
    60   29   30 am   BACKBONE|DICT|INTERRES
    61   29   99 1    
    62   30   31 2    
    63   30   32 1    
    64   32   33 1    
    65   32   34 1    
    66   32  100 1    
    67   33  101 1    
    68   33  102 1    
    69   33  103 1    
    70   34   35 am   BACKBONE|DICT|INTERRES
    71   34  104 1    
    72   35   36 2    
    73   37   38 2    
    74   37   39 am   BACKBONE|DICT|INTERRES
    75   39   40 1    
    76   39  105 1    
    77   40   41 1    
    78   40   42 1    
    79   40  106 1    
    80   41  107 1    
    81   41  108 1    
    82   41  109 1    
    83   42   43 2    
    84   42   44 am   BACKBONE|DICT|INTERRES
    85   44   45 1    
    86   44  110 1    
    87   45   46 1    
    88   45   47 1    
    89   45  111 1    
    90   46  112 1    
    91   46  113 1    
    92   46  114 1    
    93   47   48 2    
    94   47   49 am   BACKBONE|DICT|INTERRES
    95   49   50 1    
    96   49  115 1    
    97   50   51 1    
    98   50   52 1    
    99   50  116 1    
   100   51  117 1    
   101   51  118 1    
   102   51  119 1    
   103   52   53 2    
   104   52   54 am   BACKBONE|DICT|INTERRES
   105   54   55 1    
   106   54  120 1    
   107   55   56 1    
   108   55   57 1    
   109   55  121 1    
   110   56  122 1    
   111   56  123 1    
   112   56  124 1    
   113   57   58 2    
   114   57   59 am   BACKBONE|DICT|INTERRES
   115   59   60 1    
   116   59  125 1    
   117   60   61 1    
   118   60   62 1    
   119   60  126 1    
   120   61  127 1    
   121   61  128 1    
   122   61  129 1    
   123   62   63 2    
   124   62   64 am   BACKBONE|DICT|INTERRES
   125   64   65 1    
   126   64  130 1    
   127   65   66 1    
   128   65   69 1    
   129   65  131 1    
   130   66   67 am   BACKBONE|DICT|INTERRES
   131   66   68 2    
   132   67  132 1    
   133   67  133 1    
   134   69   70 1    
   135   69  134 1    
   136   69  135 1    
   137   70   71 1    
   138   71  136 1    
   139   71  137 1    
@<TRIPOS>SUBSTRUCTURE
     1 UNK         1 GROUP             0       ****    0 ROOT    
