@<TRIPOS>MOLECULE
3R137
137   139    1
SMALL
USER_CHARGES


@<TRIPOS>ATOM
      1 CA         25.5622   -6.5132    2.2659 C.3       0 UNK        -0.2020 
      2 C          26.1783   -5.1329    2.0933 C.2       0 UNK         0.4855 
      3 O          25.8281   -4.2094    2.8288 O.2       0 UNK        -0.5197 
      4 N          27.0994   -4.9850    1.1331 N.am      1 UNK        -0.4892 
      5 CA         27.7365   -3.7142    0.7816 C.3       1 UNK         0.0835 
      6 C6         29.0331   -3.9482   -0.0401 C.3       12 UNK        -0.0855 
      7 S7         30.1572   -2.5064   -0.0840 S.3       12 UNK        -0.2931 
      8 C8         29.5760   -1.5273   -1.5134 C.3       12 UNK         0.0378 
      9 C9         29.8735   -2.1698   -2.8607 C.ar      12 UNK        -0.0802 
     10 C10        31.0450   -1.8423   -3.5461 C.ar      12 UNK        -0.0944 
     11 C11        31.2864   -2.3449   -4.8287 C.ar      12 UNK        -0.0787 
     12 C12        30.3601   -3.2192   -5.4108 C.ar      12 UNK        -0.0862 
     13 C13        29.1978   -3.5819   -4.7201 C.ar      12 UNK        -0.0733 
     14 C14        28.9522   -3.0355   -3.4571 C.ar      12 UNK        -0.0832 
     15 C15        28.2305   -4.6084   -5.2969 C.3       12 UNK         0.0240 
     16 S16        26.5730   -3.9186   -5.6200 S.3       12 UNK        -0.2522 
     17 C17        26.5585   -3.7290   -7.4381 C.3       12 UNK        -0.0967 
     18 CA         26.4032   -2.2687   -7.9234 C.3       5 UNK         0.0660 
     19 N          25.2026   -1.6194   -7.3920 N.am      5 UNK        -0.4015 
     20 C          24.7583   -0.4088   -7.7573 C.2       4 UNK         0.4946 
     21 O          25.2676    0.2560   -8.6609 O.2       4 UNK        -0.5353 
     22 CA         23.5816    0.1903   -6.9638 C.3       4 UNK         0.0277 
     23 CB         22.2865    0.1007   -7.7868 C.3       4 UNK        -0.1981 
     24 N          23.3517   -0.3944   -5.6343 N.am      4 UNK        -0.4209 
     25 C          24.2377   -0.4311   -4.6288 C.2       3 UNK         0.4942 
     26 O          25.4053   -0.0376   -4.7244 O.2       3 UNK        -0.5208 
     27 CA         23.7420   -1.0386   -3.3099 C.3       3 UNK         0.0250 
     28 CB         23.5620   -2.5651   -3.4333 C.3       3 UNK        -0.1990 
     29 N          24.7236   -0.7278   -2.2779 N.am      3 UNK        -0.4232 
     30 C          24.5672   -0.8454   -0.9555 C.2       2 UNK         0.4993 
     31 O          23.5269   -1.2156   -0.4060 O.2       2 UNK        -0.5286 
     32 CA         25.7968   -0.4797   -0.1022 C.3       2 UNK         0.0209 
     33 CB         25.4218    0.5386    0.9892 C.3       2 UNK        -0.1931 
     34 N          26.4886   -1.6160    0.5262 N.am      2 UNK        -0.4546 
     35 C          26.7392   -2.8298    0.0075 C.2       1 UNK         0.5154 
     36 O          26.2875   -3.2520   -1.0584 O.2       1 UNK        -0.5181 
     37 C          27.6900   -1.4499   -7.6941 C.2       5 UNK         0.5014 
     38 O          28.5780   -1.5012   -8.5441 O.2       5 UNK        -0.5248 
     39 N          27.7549   -0.6780   -6.5972 N.am      6 UNK        -0.4434 
     40 CA         28.8667    0.2268   -6.3032 C.3       6 UNK         0.0363 
     41 CB         28.7245    0.7798   -4.8770 C.3       6 UNK        -0.1936 
     42 C          28.9631    1.3729   -7.3212 C.2       6 UNK         0.5081 
     43 O          30.0556    1.6773   -7.8004 O.2       6 UNK        -0.5248 
     44 N          27.8066    1.9579   -7.6633 N.am      7 UNK        -0.4718 
     45 CA         27.6751    3.0072   -8.6745 C.3       7 UNK         0.0273 
     46 CB         26.2912    3.6662   -8.5602 C.3       7 UNK        -0.1935 
     47 C          27.9166    2.4784  -10.0966 C.2       7 UNK         0.5018 
     48 O          28.5475    3.1729  -10.8932 O.2       7 UNK        -0.5186 
     49 N          27.4377    1.2573  -10.3795 N.am      8 UNK        -0.4240 
     50 CA         27.6572    0.5543  -11.6463 C.3       8 UNK         0.0235 
     51 CB         26.7726   -0.7005  -11.7096 C.3       8 UNK        -0.2000 
     52 C          29.1350    0.1929  -11.8752 C.2       8 UNK         0.4941 
     53 O          29.6373    0.3913  -12.9821 O.2       8 UNK        -0.5273 
     54 N          29.8072   -0.3115  -10.8294 N.am      9 UNK        -0.4262 
     55 CA         31.2410   -0.6121  -10.8353 C.3       9 UNK         0.0264 
     56 CB         31.5909   -1.4738   -9.6095 C.3       9 UNK        -0.1955 
     57 C          32.1203    0.6489  -10.8577 C.2       9 UNK         0.5031 
     58 O          33.2101    0.6048  -11.4303 O.2       9 UNK        -0.5390 
     59 N          31.6455    1.7263  -10.2120 N.am      10 UNK        -0.4204 
     60 CA         32.3463    2.9898   -9.9482 C.3       10 UNK         0.0237 
     61 CB         32.6341    3.7563  -11.2567 C.3       10 UNK        -0.1985 
     62 C          33.5963    2.7824   -9.0692 C.2       10 UNK         0.4970 
     63 O          34.6181    3.4412   -9.2730 O.2       10 UNK        -0.4914 
     64 N          33.4896    1.8428   -8.1228 N.am      11 UNK        -0.4285 
     65 CA         34.5401    1.4520   -7.1776 C.3       11 UNK         0.1007 
     66 C          34.8009    2.5126   -6.0701 C.2       11 UNK         0.5703 
     67 N          35.9461    2.4384   -5.4045 N.am      11 UNK        -0.7361 
     68 O          33.9804    3.3871   -5.7951 O.2       11 UNK        -0.4986 
     69 C69        34.2692    0.0334   -6.6056 C.3       12 UNK        -0.0947 
     70 S70        32.6320   -0.1405   -5.8221 S.3       12 UNK        -0.2240 
     71 C71        32.5535   -1.9416   -5.5714 C.3       12 UNK         0.0194 
     72 H72        25.7470   -6.8832    3.2741 H         1 UNK         0.0906 
     73 H73        24.4844   -6.4643    2.1132 H         1 UNK         0.0906 
     74 H74        25.9722   -7.2350    1.5598 H         1 UNK         0.0906 
     75 H75        27.3218   -5.7679    0.5343 H         1 UNK         0.3140 
     76 H76        28.0122   -3.2136    1.7130 H         1 UNK         0.1085 
     77 H77        29.6054   -4.7528    0.4247 H         1 UNK         0.0836 
     78 H78        28.8187   -4.3051   -1.0469 H         1 UNK         0.0836 
     79 H79        30.0596   -0.5502   -1.4679 H         1 UNK         0.0731 
     80 H80        28.5117   -1.3188   -1.4348 H         1 UNK         0.0731 
     81 H81        31.7584   -1.1656   -3.0955 H         1 UNK         0.1312 
     82 H82        30.5497   -3.6263   -6.3946 H         1 UNK         0.1406 
     83 H83        28.0364   -3.2899   -2.9423 H         1 UNK         0.1631 
     84 H84        28.1226   -5.4179   -4.5737 H         1 UNK         0.0717 
     85 H85        28.6402   -5.0716   -6.1950 H         1 UNK         0.0717 
     86 H86        27.4491   -4.1798   -7.8796 H         1 UNK         0.0934 
     87 H87        25.7249   -4.3216   -7.8182 H         1 UNK         0.0934 
     88 H88        26.2624   -2.3132   -9.0042 H         1 UNK         0.0739 
     89 H89        24.7430   -2.0929   -6.6286 H         1 UNK         0.3093 
     90 H90        23.8153    1.2463   -6.8128 H         1 UNK         0.0818 
     91 H91        21.4666    0.6276   -7.2983 H         1 UNK         0.0819 
     92 H92        22.4164    0.5537   -8.7710 H         1 UNK         0.0819 
     93 H93        21.9778   -0.9337   -7.9430 H         1 UNK         0.0819 
     94 H94        22.4228   -0.7537   -5.4640 H         1 UNK         0.3041 
     95 H95        22.7911   -0.5702   -3.0482 H         1 UNK         0.0784 
     96 H96        24.5122   -3.0641   -3.6255 H         1 UNK         0.0793 
     97 H97        23.1494   -2.9914   -2.5189 H         1 UNK         0.0793 
     98 H98        22.8806   -2.8277   -4.2430 H         1 UNK         0.0793 
     99 H99        25.5973   -0.3878   -2.6627 H         1 UNK         0.3024 
    100 H100       26.5252    0.0044   -0.7554 H         1 UNK         0.1171 
    101 H101       24.9065    1.3999    0.5613 H         1 UNK         0.0786 
    102 H102       26.3053    0.9163    1.5043 H         1 UNK         0.0786 
    103 H103       24.7585    0.1008    1.7364 H         1 UNK         0.0786 
    104 H104       26.8943   -1.4147    1.4287 H         1 UNK         0.2977 
    105 H105       26.9736   -0.6702   -5.9493 H         1 UNK         0.3127 
    106 H106       29.7871   -0.3548   -6.3608 H         1 UNK         0.0770 
    107 H107       27.8462    1.4181   -4.7734 H         1 UNK         0.0814 
    108 H108       29.5983    1.3724   -4.6035 H         1 UNK         0.0814 
    109 H109       28.6353   -0.0241   -4.1484 H         1 UNK         0.0814 
    110 H110       26.9517    1.6066   -7.2558 H         1 UNK         0.2983 
    111 H111       28.4330    3.7676   -8.4722 H         1 UNK         0.0947 
    112 H112       26.1848    4.4738   -9.2858 H         1 UNK         0.0806 
    113 H113       26.1378    4.0983   -7.5713 H         1 UNK         0.0806 
    114 H114       25.4849    2.9555   -8.7451 H         1 UNK         0.0806 
    115 H115       26.8625    0.7917   -9.6826 H         1 UNK         0.3000 
    116 H116       27.3498    1.2259  -12.4508 H         1 UNK         0.0850 
    117 H117       26.8359   -1.1692  -12.6924 H         1 UNK         0.0810 
    118 H118       25.7243   -0.4606  -11.5297 H         1 UNK         0.0810 
    119 H119       27.0788   -1.4458  -10.9766 H         1 UNK         0.0810 
    120 H120       29.3030   -0.5269   -9.9710 H         1 UNK         0.3040 
    121 H121       31.4642   -1.1897  -11.7348 H         1 UNK         0.0766 
    122 H122       32.6545   -1.7153   -9.5889 H         1 UNK         0.0812 
    123 H123       31.0440   -2.4167   -9.6190 H         1 UNK         0.0812 
    124 H124       31.3541   -0.9621   -8.6754 H         1 UNK         0.0812 
    125 H125       30.7711    1.6198   -9.7069 H         1 UNK         0.3205 
    126 H126       31.6585    3.5961   -9.3567 H         1 UNK         0.0754 
    127 H127       33.0262    4.7522  -11.0471 H         1 UNK         0.0769 
    128 H128       31.7260    3.8830  -11.8464 H         1 UNK         0.0769 
    129 H129       33.3688    3.2421  -11.8768 H         1 UNK         0.0769 
    130 H130       32.5904    1.4048   -7.9777 H         1 UNK         0.2981 
    131 H131       35.4650    1.3891   -7.7543 H         1 UNK         0.0541 
    132 H132       36.1334    3.1113   -4.6778 H         1 UNK         0.3459 
    133 H133       36.6273    1.7255   -5.6142 H         1 UNK         0.3459 
    134 H134       35.0377   -0.2525   -5.8855 H         1 UNK         0.0612 
    135 H135       34.3335   -0.6962   -7.4145 H         1 UNK         0.0612 
    136 H136       32.6103   -2.4376   -6.5416 H         1 UNK         0.0624 
    137 H137       33.4231   -2.2656   -4.9982 H         1 UNK         0.0624 
@<TRIPOS>BOND
     1    1    2 1    
     2    1   72 1    
     3    1   73 1    
     4    1   74 1    
     5    2    3 2    
     6    2    4 am   BACKBONE|DICT|INTERRES
     7    4    5 1    
     8    4   75 1    
     9    5    6 1    
    10    5   35 1    
    11    5   76 1    
    12    6    7 1    
    13    6   77 1    
    14    6   78 1    
    15    7    8 1    
    16    8    9 1    
    17    8   79 1    
    18    8   80 1    
    19    9   10 ar   
    20    9   14 ar   
    21   10   11 ar   
    22   10   81 1    
    23   11   12 ar   
    24   11   71 1    
    25   12   13 ar   
    26   12   82 1    
    27   13   14 ar   
    28   13   15 1    
    29   14   83 1    
    30   15   16 1    
    31   15   84 1    
    32   15   85 1    
    33   16   17 1    
    34   17   18 1    
    35   17   86 1    
    36   17   87 1    
    37   18   19 1    
    38   18   37 1    
    39   18   88 1    
    40   19   20 am   BACKBONE|DICT|INTERRES
    41   19   89 1    
    42   20   21 2    
    43   20   22 1    
    44   22   23 1    
    45   22   24 1    
    46   22   90 1    
    47   23   91 1    
    48   23   92 1    
    49   23   93 1    
    50   24   25 am   BACKBONE|DICT|INTERRES
    51   24   94 1    
    52   25   26 2    
    53   25   27 1    
    54   27   28 1    
    55   27   29 1    
    56   27   95 1    
    57   28   96 1    
    58   28   97 1    
    59   28   98 1    
    60   29   30 am   BACKBONE|DICT|INTERRES
    61   29   99 1    
    62   30   31 2    
    63   30   32 1    
    64   32   33 1    
    65   32   34 1    
    66   32  100 1    
    67   33  101 1    
    68   33  102 1    
    69   33  103 1    
    70   34   35 am   BACKBONE|DICT|INTERRES
    71   34  104 1    
    72   35   36 2    
    73   37   38 2    
    74   37   39 am   BACKBONE|DICT|INTERRES
    75   39   40 1    
    76   39  105 1    
    77   40   41 1    
    78   40   42 1    
    79   40  106 1    
    80   41  107 1    
    81   41  108 1    
    82   41  109 1    
    83   42   43 2    
    84   42   44 am   BACKBONE|DICT|INTERRES
    85   44   45 1    
    86   44  110 1    
    87   45   46 1    
    88   45   47 1    
    89   45  111 1    
    90   46  112 1    
    91   46  113 1    
    92   46  114 1    
    93   47   48 2    
    94   47   49 am   BACKBONE|DICT|INTERRES
    95   49   50 1    
    96   49  115 1    
    97   50   51 1    
    98   50   52 1    
    99   50  116 1    
   100   51  117 1    
   101   51  118 1    
   102   51  119 1    
   103   52   53 2    
   104   52   54 am   BACKBONE|DICT|INTERRES
   105   54   55 1    
   106   54  120 1    
   107   55   56 1    
   108   55   57 1    
   109   55  121 1    
   110   56  122 1    
   111   56  123 1    
   112   56  124 1    
   113   57   58 2    
   114   57   59 am   BACKBONE|DICT|INTERRES
   115   59   60 1    
   116   59  125 1    
   117   60   61 1    
   118   60   62 1    
   119   60  126 1    
   120   61  127 1    
   121   61  128 1    
   122   61  129 1    
   123   62   63 2    
   124   62   64 am   BACKBONE|DICT|INTERRES
   125   64   65 1    
   126   64  130 1    
   127   65   66 1    
   128   65   69 1    
   129   65  131 1    
   130   66   67 am   BACKBONE|DICT|INTERRES
   131   66   68 2    
   132   67  132 1    
   133   67  133 1    
   134   69   70 1    
   135   69  134 1    
   136   69  135 1    
   137   70   71 1    
   138   71  136 1    
   139   71  137 1    
@<TRIPOS>SUBSTRUCTURE
     1 UNK         1 GROUP             0       ****    0 ROOT    
