@<TRIPOS>MOLECULE
3R137
137   139    1
SMALL
USER_CHARGES


@<TRIPOS>ATOM
      1 CA         23.8111   -6.7781   -5.3807 C.3       0 UNK        -0.2020 
      2 C          24.7333   -5.9870   -6.3061 C.2       0 UNK         0.4855 
      3 O          24.7987   -6.2937   -7.4948 O.2       0 UNK        -0.5197 
      4 N          25.4748   -4.9803   -5.8219 N.am      1 UNK        -0.4892 
      5 CA         25.4518   -4.4308   -4.4603 C.3       1 UNK         0.0835 
      6 C6         26.6790   -3.5122   -4.2144 C.3       12 UNK        -0.0855 
      7 S7         27.2240   -3.5234   -2.4741 S.3       12 UNK        -0.2931 
      8 C8         28.7438   -4.5243   -2.5746 C.3       12 UNK         0.0378 
      9 C9         29.9263   -3.7031   -3.0697 C.ar      12 UNK        -0.0802 
     10 C10        30.2909   -3.7147   -4.4200 C.ar      12 UNK        -0.0944 
     11 C11        31.3724   -2.9520   -4.8705 C.ar      12 UNK        -0.0787 
     12 C12        32.1065   -2.1905   -3.9560 C.ar      12 UNK        -0.0862 
     13 C13        31.7426   -2.1584   -2.6070 C.ar      12 UNK        -0.0733 
     14 C14        30.6604   -2.9278   -2.1681 C.ar      12 UNK        -0.0832 
     15 C15        32.4980   -1.2706   -1.6286 C.3       12 UNK         0.0240 
     16 S16        31.4156   -0.0039   -0.8901 S.3       12 UNK        -0.2522 
     17 C17        31.0545    1.0912   -2.3100 C.3       12 UNK        -0.0967 
     18 CA         29.8430    0.6472   -3.1835 C.3       5 UNK         0.0660 
     19 N          28.6635    0.2396   -2.4148 N.am      5 UNK        -0.4015 
     20 C          27.8886    1.0176   -1.6496 C.2       4 UNK         0.4946 
     21 O          28.0701    2.2219   -1.4579 O.2       4 UNK        -0.5353 
     22 CA         26.6703    0.3166   -1.0254 C.3       4 UNK         0.0277 
     23 CB         26.4713    0.7394    0.4406 C.3       4 UNK        -0.1981 
     24 N          25.4236    0.5454   -1.7634 N.am      4 UNK        -0.4209 
     25 C          25.2184    0.3843   -3.0789 C.2       3 UNK         0.4942 
     26 O          26.0924    0.0769   -3.8929 O.2       3 UNK        -0.5208 
     27 CA         23.7591    0.4957   -3.5468 C.3       3 UNK         0.0250 
     28 CB         23.6508    0.9899   -5.0004 C.3       3 UNK        -0.1990 
     29 N          23.1575   -0.8307   -3.4518 N.am      3 UNK        -0.4232 
     30 C          22.7545   -1.4204   -2.3203 C.2       2 UNK         0.4993 
     31 O          22.6222   -0.8247   -1.2504 O.2       2 UNK        -0.5286 
     32 CA         22.5301   -2.9425   -2.3720 C.3       2 UNK         0.0209 
     33 CB         21.2053   -3.3038   -3.0741 C.3       2 UNK        -0.1931 
     34 N          23.6798   -3.6762   -2.9327 N.am      2 UNK        -0.4546 
     35 C          24.1360   -3.6704   -4.1940 C.2       1 UNK         0.5154 
     36 O          23.5893   -3.0623   -5.1177 O.2       1 UNK        -0.5181 
     37 C          29.5130    1.6684   -4.2993 C.2       5 UNK         0.5014 
     38 O          30.3752    2.4719   -4.6586 O.2       5 UNK        -0.5248 
     39 N          28.2832    1.6281   -4.8325 N.am      6 UNK        -0.4434 
     40 CA         27.7810    2.5644   -5.8416 C.3       6 UNK         0.0363 
     41 CB         26.9807    3.6747   -5.1350 C.3       6 UNK        -0.1936 
     42 C          26.9532    1.8711   -6.9377 C.2       6 UNK         0.5081 
     43 O          26.3350    2.5633   -7.7471 O.2       6 UNK        -0.5248 
     44 N          26.9426    0.5302   -6.9632 N.am      7 UNK        -0.4718 
     45 CA         26.1900   -0.2768   -7.9315 C.3       7 UNK         0.0273 
     46 CB         26.1199   -1.7272   -7.4320 C.3       7 UNK        -0.1935 
     47 C          26.7456   -0.2232   -9.3664 C.2       7 UNK         0.5018 
     48 O          25.9981   -0.4870  -10.3095 O.2       7 UNK        -0.5186 
     49 N          28.0295    0.1177   -9.5108 N.am      8 UNK        -0.4240 
     50 CA         28.7253    0.3096  -10.7771 C.3       8 UNK         0.0235 
     51 CB         29.2717   -1.0396  -11.2797 C.3       8 UNK        -0.2000 
     52 C          29.8646    1.3034  -10.5423 C.2       8 UNK         0.4941 
     53 O          30.3320    1.4322   -9.4084 O.2       8 UNK        -0.5273 
     54 N          30.3379    1.9462  -11.6190 N.am      9 UNK        -0.4262 
     55 CA         31.4784    2.8739  -11.5961 C.3       9 UNK         0.0264 
     56 CB         31.6499    3.5137  -12.9832 C.3       9 UNK        -0.1955 
     57 C          32.7939    2.2164  -11.1372 C.2       9 UNK         0.5031 
     58 O          33.6191    2.8794  -10.5072 O.2       9 UNK        -0.5390 
     59 N          32.9359    0.9115  -11.4121 N.am      10 UNK        -0.4204 
     60 CA         34.0322    0.0551  -10.9542 C.3       10 UNK         0.0237 
     61 CB         33.9000   -1.3241  -11.6213 C.3       10 UNK        -0.1985 
     62 C          34.1159   -0.0981   -9.4229 C.2       10 UNK         0.4970 
     63 O          35.1924   -0.4253   -8.9217 O.2       10 UNK        -0.4914 
     64 N          33.0063    0.1406   -8.7090 N.am      11 UNK        -0.4285 
     65 CA         32.9583    0.1526   -7.2407 C.3       11 UNK         0.1007 
     66 C          33.5476    1.4419   -6.5973 C.2       11 UNK         0.5703 
     67 N          33.8519    2.4930   -7.3526 N.am      11 UNK        -0.7361 
     68 O          33.7593    1.4761   -5.3876 O.2       11 UNK        -0.4986 
     69 C69        31.5344   -0.1412   -6.7002 C.3       12 UNK        -0.0947 
     70 S70        30.8178   -1.7097   -7.3003 S.3       12 UNK        -0.2240 
     71 C71        31.7476   -2.9548   -6.3454 C.3       12 UNK         0.0194 
     72 H72        22.9489   -6.1799   -5.0877 H         1 UNK         0.0906 
     73 H73        23.4370   -7.6665   -5.8894 H         1 UNK         0.0906 
     74 H74        24.3327   -7.1138   -4.4854 H         1 UNK         0.0906 
     75 H75        26.0478   -4.4694   -6.4767 H         1 UNK         0.3140 
     76 H76        25.5109   -5.2753   -3.7713 H         1 UNK         0.1085 
     77 H77        27.5134   -3.8267   -4.8395 H         1 UNK         0.0836 
     78 H78        26.4843   -2.4794   -4.5060 H         1 UNK         0.0836 
     79 H79        28.9668   -4.9220   -1.5833 H         1 UNK         0.0731 
     80 H80        28.5774   -5.3913   -3.2161 H         1 UNK         0.0731 
     81 H81        29.7329   -4.3135   -5.1262 H         1 UNK         0.1312 
     82 H82        32.9442   -1.5995   -4.3009 H         1 UNK         0.1406 
     83 H83        30.3758   -2.9036   -1.1246 H         1 UNK         0.1631 
     84 H84        33.3477   -0.7832   -2.1094 H         1 UNK         0.0717 
     85 H85        32.9089   -1.8918   -0.8317 H         1 UNK         0.0717 
     86 H86        30.8742    2.0898   -1.9077 H         1 UNK         0.0934 
     87 H87        31.9534    1.1755   -2.9244 H         1 UNK         0.0934 
     88 H88        30.1374   -0.2518   -3.7208 H         1 UNK         0.0739 
     89 H89        28.3924   -0.7272   -2.5306 H         1 UNK         0.3093 
     90 H90        26.8531   -0.7599   -1.0333 H         1 UNK         0.0818 
     91 H91        25.6831    0.1578    0.9193 H         1 UNK         0.0819 
     92 H92        27.3836    0.5837    1.0182 H         1 UNK         0.0819 
     93 H93        26.2089    1.7949    0.5248 H         1 UNK         0.0819 
     94 H94        24.6135    0.7503   -1.1947 H         1 UNK         0.3041 
     95 H95        23.2231    1.1949   -2.9013 H         1 UNK         0.0784 
     96 H96        22.6096    1.0912   -5.3063 H         1 UNK         0.0793 
     97 H97        24.1206    1.9664   -5.1191 H         1 UNK         0.0793 
     98 H98        24.1366    0.3067   -5.6977 H         1 UNK         0.0793 
     99 H99        23.2730   -1.4384   -4.2599 H         1 UNK         0.3024 
    100 H100       22.4448   -3.2753   -1.3357 H         1 UNK         0.1171 
    101 H101       21.1785   -2.9668   -4.1105 H         1 UNK         0.0786 
    102 H102       20.3600   -2.8394   -2.5647 H         1 UNK         0.0786 
    103 H103       21.0350   -4.3804   -3.0677 H         1 UNK         0.0786 
    104 H104       24.2368   -4.1647   -2.2437 H         1 UNK         0.2977 
    105 H105       27.5968    0.9740   -4.4557 H         1 UNK         0.3127 
    106 H106       28.6195    3.0284   -6.3653 H         1 UNK         0.0770 
    107 H107       26.1276    3.2687   -4.5912 H         1 UNK         0.0814 
    108 H108       26.5999    4.4068   -5.8481 H         1 UNK         0.0814 
    109 H109       27.6029    4.2146   -4.4211 H         1 UNK         0.0814 
    110 H110       27.4677    0.0287   -6.2624 H         1 UNK         0.2983 
    111 H111       25.1712    0.1145   -7.9758 H         1 UNK         0.0947 
    112 H112       25.5992   -2.3656   -8.1472 H         1 UNK         0.0806 
    113 H113       25.5666   -1.7831   -6.4960 H         1 UNK         0.0806 
    114 H114       27.1125   -2.1507   -7.2731 H         1 UNK         0.0806 
    115 H115       28.5754    0.3646   -8.6943 H         1 UNK         0.3000 
    116 H116       28.0371    0.7331  -11.5120 H         1 UNK         0.0850 
    117 H117       29.9735   -1.4785  -10.5687 H         1 UNK         0.0810 
    118 H118       28.4673   -1.7580  -11.4389 H         1 UNK         0.0810 
    119 H119       29.7938   -0.9262  -12.2304 H         1 UNK         0.0810 
    120 H120       29.9006    1.7867  -12.5160 H         1 UNK         0.3040 
    121 H121       31.2452    3.6652  -10.8802 H         1 UNK         0.0766 
    122 H122       30.7563    4.0624  -13.2811 H         1 UNK         0.0812 
    123 H123       31.8592    2.7678  -13.7510 H         1 UNK         0.0812 
    124 H124       32.4783    4.2237  -12.9847 H         1 UNK         0.0812 
    125 H125       32.2031    0.4615  -11.9402 H         1 UNK         0.3205 
    126 H126       34.9676    0.5108  -11.2855 H         1 UNK         0.0754 
    127 H127       34.7206   -1.9805  -11.3276 H         1 UNK         0.0769 
    128 H128       33.9259   -1.2450  -12.7084 H         1 UNK         0.0769 
    129 H129       32.9699   -1.8208  -11.3408 H         1 UNK         0.0769 
    130 H130       32.1569    0.4406   -9.1727 H         1 UNK         0.2981 
    131 H131       33.6032   -0.6537   -6.8891 H         1 UNK         0.0541 
    132 H132       34.2402    3.3130   -6.9152 H         1 UNK         0.3459 
    133 H133       33.7018    2.4798   -8.3532 H         1 UNK         0.3459 
    134 H134       30.8539    0.6637   -6.9799 H         1 UNK         0.0612 
    135 H135       31.5352   -0.1519   -5.6125 H         1 UNK         0.0612 
    136 H136       31.5422   -3.9379   -6.7713 H         1 UNK         0.0624 
    137 H137       32.8190   -2.7954   -6.4690 H         1 UNK         0.0624 
@<TRIPOS>BOND
     1    1    2 1    
     2    1   72 1    
     3    1   73 1    
     4    1   74 1    
     5    2    3 2    
     6    2    4 am   BACKBONE|DICT|INTERRES
     7    4    5 1    
     8    4   75 1    
     9    5    6 1    
    10    5   35 1    
    11    5   76 1    
    12    6    7 1    
    13    6   77 1    
    14    6   78 1    
    15    7    8 1    
    16    8    9 1    
    17    8   79 1    
    18    8   80 1    
    19    9   10 ar   
    20    9   14 ar   
    21   10   11 ar   
    22   10   81 1    
    23   11   12 ar   
    24   11   71 1    
    25   12   13 ar   
    26   12   82 1    
    27   13   14 ar   
    28   13   15 1    
    29   14   83 1    
    30   15   16 1    
    31   15   84 1    
    32   15   85 1    
    33   16   17 1    
    34   17   18 1    
    35   17   86 1    
    36   17   87 1    
    37   18   19 1    
    38   18   37 1    
    39   18   88 1    
    40   19   20 am   BACKBONE|DICT|INTERRES
    41   19   89 1    
    42   20   21 2    
    43   20   22 1    
    44   22   23 1    
    45   22   24 1    
    46   22   90 1    
    47   23   91 1    
    48   23   92 1    
    49   23   93 1    
    50   24   25 am   BACKBONE|DICT|INTERRES
    51   24   94 1    
    52   25   26 2    
    53   25   27 1    
    54   27   28 1    
    55   27   29 1    
    56   27   95 1    
    57   28   96 1    
    58   28   97 1    
    59   28   98 1    
    60   29   30 am   BACKBONE|DICT|INTERRES
    61   29   99 1    
    62   30   31 2    
    63   30   32 1    
    64   32   33 1    
    65   32   34 1    
    66   32  100 1    
    67   33  101 1    
    68   33  102 1    
    69   33  103 1    
    70   34   35 am   BACKBONE|DICT|INTERRES
    71   34  104 1    
    72   35   36 2    
    73   37   38 2    
    74   37   39 am   BACKBONE|DICT|INTERRES
    75   39   40 1    
    76   39  105 1    
    77   40   41 1    
    78   40   42 1    
    79   40  106 1    
    80   41  107 1    
    81   41  108 1    
    82   41  109 1    
    83   42   43 2    
    84   42   44 am   BACKBONE|DICT|INTERRES
    85   44   45 1    
    86   44  110 1    
    87   45   46 1    
    88   45   47 1    
    89   45  111 1    
    90   46  112 1    
    91   46  113 1    
    92   46  114 1    
    93   47   48 2    
    94   47   49 am   BACKBONE|DICT|INTERRES
    95   49   50 1    
    96   49  115 1    
    97   50   51 1    
    98   50   52 1    
    99   50  116 1    
   100   51  117 1    
   101   51  118 1    
   102   51  119 1    
   103   52   53 2    
   104   52   54 am   BACKBONE|DICT|INTERRES
   105   54   55 1    
   106   54  120 1    
   107   55   56 1    
   108   55   57 1    
   109   55  121 1    
   110   56  122 1    
   111   56  123 1    
   112   56  124 1    
   113   57   58 2    
   114   57   59 am   BACKBONE|DICT|INTERRES
   115   59   60 1    
   116   59  125 1    
   117   60   61 1    
   118   60   62 1    
   119   60  126 1    
   120   61  127 1    
   121   61  128 1    
   122   61  129 1    
   123   62   63 2    
   124   62   64 am   BACKBONE|DICT|INTERRES
   125   64   65 1    
   126   64  130 1    
   127   65   66 1    
   128   65   69 1    
   129   65  131 1    
   130   66   67 am   BACKBONE|DICT|INTERRES
   131   66   68 2    
   132   67  132 1    
   133   67  133 1    
   134   69   70 1    
   135   69  134 1    
   136   69  135 1    
   137   70   71 1    
   138   71  136 1    
   139   71  137 1    
@<TRIPOS>SUBSTRUCTURE
     1 UNK         1 GROUP             0       ****    0 ROOT    
