@<TRIPOS>MOLECULE
3R137
137   139    1
SMALL
USER_CHARGES


@<TRIPOS>ATOM
      1 CA         26.0829   -5.8730   -0.8714 C.3       0 UNK        -0.2020 
      2 C          26.8958   -4.5918   -0.9754 C.2       0 UNK         0.4855 
      3 O          26.8135   -3.7387   -0.0907 O.2       0 UNK        -0.5197 
      4 N          27.6764   -4.4417   -2.0531 N.am      1 UNK        -0.4892 
      5 CA         28.5160   -3.2734   -2.3401 C.3       1 UNK         0.0835 
      6 C6         29.6693   -3.6275   -3.3154 C.3       12 UNK        -0.0855 
      7 S7         30.9878   -4.6025   -2.5040 S.3       12 UNK        -0.2931 
      8 C8         31.8080   -3.3925   -1.4012 C.3       12 UNK         0.0378 
      9 C9         32.4046   -2.2196   -2.1656 C.ar      12 UNK        -0.0802 
     10 C10        33.7259   -2.2638   -2.6178 C.ar      12 UNK        -0.0944 
     11 C11        34.2476   -1.2161   -3.3841 C.ar      12 UNK        -0.0787 
     12 C12        33.4351   -0.1216   -3.7038 C.ar      12 UNK        -0.0862 
     13 C13        32.1150   -0.0655   -3.2458 C.ar      12 UNK        -0.0733 
     14 C14        31.6221   -1.0969   -2.4451 C.ar      12 UNK        -0.0832 
     15 C15        31.1843    1.0646   -3.6551 C.3       12 UNK         0.0240 
     16 S16        30.0999    0.5062   -5.0050 S.3       12 UNK        -0.2522 
     17 C17        28.7233    1.6943   -4.8950 C.3       12 UNK        -0.0967 
     18 CA         27.7389    1.5312   -6.0786 C.3       5 UNK         0.0660 
     19 N          27.1501    0.1861   -6.1548 N.am      5 UNK        -0.4015 
     20 C          26.4215   -0.2809   -7.1818 C.2       4 UNK         0.4946 
     21 O          25.9940    0.4198   -8.0994 O.2       4 UNK        -0.5353 
     22 CA         26.0929   -1.7785   -7.1735 C.3       4 UNK         0.0277 
     23 CB         27.3643   -2.6286   -7.3473 C.3       4 UNK        -0.1981 
     24 N          25.4129   -2.1302   -5.9306 N.am      4 UNK        -0.4209 
     25 C          24.0839   -2.0738   -5.7584 C.2       3 UNK         0.4942 
     26 O          23.2801   -1.8807   -6.6712 O.2       3 UNK        -0.5208 
     27 CA         23.5511   -2.2380   -4.3215 C.3       3 UNK         0.0250 
     28 CB         23.1813   -3.7051   -4.0485 C.3       3 UNK        -0.1990 
     29 N          24.4828   -1.7779   -3.2886 N.am      3 UNK        -0.4232 
     30 C          24.9637   -0.5311   -3.1766 C.2       2 UNK         0.4993 
     31 O          24.6321    0.4037   -3.9036 O.2       2 UNK        -0.5286 
     32 CA         26.0551   -0.3053   -2.1194 C.3       2 UNK         0.0209 
     33 CB         25.4301    0.1250   -0.7836 C.3       2 UNK        -0.1931 
     34 N          26.9219   -1.4694   -1.9009 N.am      2 UNK        -0.4546 
     35 C          27.6570   -2.0915   -2.8339 C.2       1 UNK         0.5154 
     36 O          27.6365   -1.7862   -4.0280 O.2       1 UNK        -0.5181 
     37 C          26.7284    2.6950   -6.1410 C.2       5 UNK         0.5014 
     38 O          27.1126    3.7820   -6.5756 O.2       5 UNK        -0.5248 
     39 N          25.4641    2.4638   -5.7568 N.am      6 UNK        -0.4434 
     40 CA         24.3620    3.4126   -5.9461 C.3       6 UNK         0.0363 
     41 CB         23.1217    2.9176   -5.1854 C.3       6 UNK        -0.1936 
     42 C          24.0127    3.6705   -7.4260 C.2       6 UNK         0.5081 
     43 O          23.5046    4.7490   -7.7353 O.2       6 UNK        -0.5248 
     44 N          24.2816    2.6973   -8.3081 N.am      7 UNK        -0.4718 
     45 CA         24.1075    2.8172   -9.7553 C.3       7 UNK         0.0273 
     46 CB         23.5892    1.4882  -10.3316 C.3       7 UNK        -0.1935 
     47 C          25.4253    3.2364  -10.4220 C.2       7 UNK         0.5018 
     48 O          25.4381    4.2259  -11.1556 O.2       7 UNK        -0.5186 
     49 N          26.5082    2.4974  -10.1475 N.am      8 UNK        -0.4240 
     50 CA         27.8561    2.7590  -10.6522 C.3       8 UNK         0.0235 
     51 CB         27.9762    2.3463  -12.1320 C.3       8 UNK        -0.2000 
     52 C          28.8555    1.9824   -9.7921 C.2       8 UNK         0.4941 
     53 O          28.6106    0.8107   -9.5041 O.2       8 UNK        -0.5273 
     54 N          29.9547    2.6389   -9.3966 N.am      9 UNK        -0.4262 
     55 CA         30.9917    2.0908   -8.5168 C.3       9 UNK         0.0264 
     56 CB         32.0428    3.1745   -8.2244 C.3       9 UNK        -0.1955 
     57 C          31.6475    0.8221   -9.0889 C.2       9 UNK         0.5031 
     58 O          32.2937    0.8940  -10.1372 O.2       9 UNK        -0.5390 
     59 N          31.4737   -0.3017   -8.3873 N.am      10 UNK        -0.4204 
     60 CA         32.0391   -1.6030   -8.7193 C.3       10 UNK         0.0237 
     61 CB         31.1460   -2.3325   -9.7392 C.3       10 UNK        -0.1985 
     62 C          32.1626   -2.3941   -7.4163 C.2       10 UNK         0.4970 
     63 O          31.1962   -2.4542   -6.6546 O.2       10 UNK        -0.4914 
     64 N          33.3439   -2.9735   -7.1878 N.am      11 UNK        -0.4285 
     65 CA         33.7057   -3.6716   -5.9434 C.3       11 UNK         0.1007 
     66 C          33.2799   -5.1686   -5.8957 C.2       11 UNK         0.5703 
     67 N          32.6014   -5.7022   -6.9050 N.am      11 UNK        -0.7361 
     68 O          33.5751   -5.8647   -4.9274 O.2       11 UNK        -0.4986 
     69 C69        35.2137   -3.4926   -5.6087 C.3       12 UNK        -0.0947 
     70 S70        35.7672   -1.7503   -5.6429 S.3       12 UNK        -0.2240 
     71 C71        35.6821   -1.2797   -3.8869 C.3       12 UNK         0.0194 
     72 H72        26.3503   -6.4131    0.0365 H         1 UNK         0.0906 
     73 H73        25.0193   -5.6399   -0.8285 H         1 UNK         0.0906 
     74 H74        26.2516   -6.5342   -1.7212 H         1 UNK         0.0906 
     75 H75        27.7039   -5.1743   -2.7484 H         1 UNK         0.3140 
     76 H76        28.9607   -2.9390   -1.4018 H         1 UNK         0.1085 
     77 H77        30.1126   -2.7435   -3.7740 H         1 UNK         0.0836 
     78 H78        29.2857   -4.2035   -4.1594 H         1 UNK         0.0836 
     79 H79        32.5955   -3.9088   -0.8500 H         1 UNK         0.0731 
     80 H80        31.1076   -3.0356   -0.6458 H         1 UNK         0.0731 
     81 H81        34.3387   -3.1273   -2.3974 H         1 UNK         0.1312 
     82 H82        33.8242    0.6714   -4.3278 H         1 UNK         0.1406 
     83 H83        30.5998   -1.0521   -2.0978 H         1 UNK         0.1631 
     84 H84        31.7484    1.9410   -3.9775 H         1 UNK         0.0717 
     85 H85        30.5828    1.3733   -2.7986 H         1 UNK         0.0717 
     86 H86        28.2103    1.5608   -3.9422 H         1 UNK         0.0934 
     87 H87        29.1480    2.7005   -4.8823 H         1 UNK         0.0934 
     88 H88        28.3256    1.6331   -6.9891 H         1 UNK         0.0739 
     89 H89        27.4446   -0.4681   -5.4342 H         1 UNK         0.3093 
     90 H90        25.4388   -1.9844   -8.0238 H         1 UNK         0.0818 
     91 H91        27.8711   -2.3743   -8.2791 H         1 UNK         0.0819 
     92 H92        28.0828   -2.4775   -6.5408 H         1 UNK         0.0819 
     93 H93        27.1268   -3.6915   -7.3867 H         1 UNK         0.0819 
     94 H94        26.0073   -2.2453   -5.1168 H         1 UNK         0.3041 
     95 H95        22.6463   -1.6321   -4.2393 H         1 UNK         0.0784 
     96 H96        22.4683   -4.0716   -4.7886 H         1 UNK         0.0793 
     97 H97        24.0554   -4.3565   -4.0878 H         1 UNK         0.0793 
     98 H98        22.7170   -3.8229   -3.0692 H         1 UNK         0.0793 
     99 H99        24.8237   -2.4728   -2.6408 H         1 UNK         0.3024 
    100 H100       26.6851    0.5093   -2.4794 H         1 UNK         0.1171 
    101 H101       26.1958    0.3927   -0.0552 H         1 UNK         0.0786 
    102 H102       24.7907    0.9994   -0.9149 H         1 UNK         0.0786 
    103 H103       24.8169   -0.6665   -0.3507 H         1 UNK         0.0786 
    104 H104       26.9296   -1.8660   -0.9665 H         1 UNK         0.2977 
    105 H105       25.2255    1.5698   -5.3336 H         1 UNK         0.3127 
    106 H106       24.6663    4.3678   -5.5130 H         1 UNK         0.0770 
    107 H107       22.7958    1.9393   -5.5415 H         1 UNK         0.0814 
    108 H108       22.2850    3.6067   -5.3077 H         1 UNK         0.0814 
    109 H109       23.3191    2.8360   -4.1165 H         1 UNK         0.0814 
    110 H110       24.7591    1.8582   -7.9871 H         1 UNK         0.2983 
    111 H111       23.3625    3.5847   -9.9773 H         1 UNK         0.0947 
    112 H112       24.2793    0.6636  -10.1504 H         1 UNK         0.0806 
    113 H113       23.4465    1.5620  -11.4104 H         1 UNK         0.0806 
    114 H114       22.6276    1.2182   -9.8951 H         1 UNK         0.0806 
    115 H115       26.4293    1.7029   -9.5133 H         1 UNK         0.3000 
    116 H116       28.0614    3.8275  -10.5574 H         1 UNK         0.0850 
    117 H117       28.9913    2.5019  -12.4995 H         1 UNK         0.0810 
    118 H118       27.3104    2.9298  -12.7678 H         1 UNK         0.0810 
    119 H119       27.7355    1.2918  -12.2734 H         1 UNK         0.0810 
    120 H120       30.0942    3.5875   -9.7133 H         1 UNK         0.3040 
    121 H121       30.5163    1.8378   -7.5701 H         1 UNK         0.0766 
    122 H122       31.5965    4.0405   -7.7352 H         1 UNK         0.0812 
    123 H123       32.5343    3.5175   -9.1359 H         1 UNK         0.0812 
    124 H124       32.8192    2.7934   -7.5595 H         1 UNK         0.0812 
    125 H125       30.9371   -0.2860   -7.5272 H         1 UNK         0.3205 
    126 H126       33.0336   -1.4619   -9.1485 H         1 UNK         0.0754 
    127 H127       31.5528   -3.3140   -9.9852 H         1 UNK         0.0769 
    128 H128       31.0665   -1.7705  -10.6700 H         1 UNK         0.0769 
    129 H129       30.1365   -2.4811   -9.3540 H         1 UNK         0.0769 
    130 H130       34.0805   -2.8895   -7.8724 H         1 UNK         0.2981 
    131 H131       33.1426   -3.2036   -5.1353 H         1 UNK         0.0541 
    132 H132       32.3329   -6.6723   -6.8607 H         1 UNK         0.3459 
    133 H133       32.3451   -5.1408   -7.7004 H         1 UNK         0.3459 
    134 H134       35.4441   -3.9155   -4.6294 H         1 UNK         0.0612 
    135 H135       35.8236   -4.0450   -6.3255 H         1 UNK         0.0612 
    136 H136       36.2732   -1.9789   -3.2933 H         1 UNK         0.0624 
    137 H137       36.1513   -0.3027   -3.7631 H         1 UNK         0.0624 
@<TRIPOS>BOND
     1    1    2 1    
     2    1   72 1    
     3    1   73 1    
     4    1   74 1    
     5    2    3 2    
     6    2    4 am   BACKBONE|DICT|INTERRES
     7    4    5 1    
     8    4   75 1    
     9    5    6 1    
    10    5   35 1    
    11    5   76 1    
    12    6    7 1    
    13    6   77 1    
    14    6   78 1    
    15    7    8 1    
    16    8    9 1    
    17    8   79 1    
    18    8   80 1    
    19    9   10 ar   
    20    9   14 ar   
    21   10   11 ar   
    22   10   81 1    
    23   11   12 ar   
    24   11   71 1    
    25   12   13 ar   
    26   12   82 1    
    27   13   14 ar   
    28   13   15 1    
    29   14   83 1    
    30   15   16 1    
    31   15   84 1    
    32   15   85 1    
    33   16   17 1    
    34   17   18 1    
    35   17   86 1    
    36   17   87 1    
    37   18   19 1    
    38   18   37 1    
    39   18   88 1    
    40   19   20 am   BACKBONE|DICT|INTERRES
    41   19   89 1    
    42   20   21 2    
    43   20   22 1    
    44   22   23 1    
    45   22   24 1    
    46   22   90 1    
    47   23   91 1    
    48   23   92 1    
    49   23   93 1    
    50   24   25 am   BACKBONE|DICT|INTERRES
    51   24   94 1    
    52   25   26 2    
    53   25   27 1    
    54   27   28 1    
    55   27   29 1    
    56   27   95 1    
    57   28   96 1    
    58   28   97 1    
    59   28   98 1    
    60   29   30 am   BACKBONE|DICT|INTERRES
    61   29   99 1    
    62   30   31 2    
    63   30   32 1    
    64   32   33 1    
    65   32   34 1    
    66   32  100 1    
    67   33  101 1    
    68   33  102 1    
    69   33  103 1    
    70   34   35 am   BACKBONE|DICT|INTERRES
    71   34  104 1    
    72   35   36 2    
    73   37   38 2    
    74   37   39 am   BACKBONE|DICT|INTERRES
    75   39   40 1    
    76   39  105 1    
    77   40   41 1    
    78   40   42 1    
    79   40  106 1    
    80   41  107 1    
    81   41  108 1    
    82   41  109 1    
    83   42   43 2    
    84   42   44 am   BACKBONE|DICT|INTERRES
    85   44   45 1    
    86   44  110 1    
    87   45   46 1    
    88   45   47 1    
    89   45  111 1    
    90   46  112 1    
    91   46  113 1    
    92   46  114 1    
    93   47   48 2    
    94   47   49 am   BACKBONE|DICT|INTERRES
    95   49   50 1    
    96   49  115 1    
    97   50   51 1    
    98   50   52 1    
    99   50  116 1    
   100   51  117 1    
   101   51  118 1    
   102   51  119 1    
   103   52   53 2    
   104   52   54 am   BACKBONE|DICT|INTERRES
   105   54   55 1    
   106   54  120 1    
   107   55   56 1    
   108   55   57 1    
   109   55  121 1    
   110   56  122 1    
   111   56  123 1    
   112   56  124 1    
   113   57   58 2    
   114   57   59 am   BACKBONE|DICT|INTERRES
   115   59   60 1    
   116   59  125 1    
   117   60   61 1    
   118   60   62 1    
   119   60  126 1    
   120   61  127 1    
   121   61  128 1    
   122   61  129 1    
   123   62   63 2    
   124   62   64 am   BACKBONE|DICT|INTERRES
   125   64   65 1    
   126   64  130 1    
   127   65   66 1    
   128   65   69 1    
   129   65  131 1    
   130   66   67 am   BACKBONE|DICT|INTERRES
   131   66   68 2    
   132   67  132 1    
   133   67  133 1    
   134   69   70 1    
   135   69  134 1    
   136   69  135 1    
   137   70   71 1    
   138   71  136 1    
   139   71  137 1    
@<TRIPOS>SUBSTRUCTURE
     1 UNK         1 GROUP             0       ****    0 ROOT    
