@<TRIPOS>MOLECULE
3R137
137   139    1
SMALL
USER_CHARGES


@<TRIPOS>ATOM
      1 CA         29.2010   -8.2470   -4.3852 C.3       0 UNK        -0.2020 
      2 C          28.8330   -7.4587   -3.1370 C.2       0 UNK         0.4855 
      3 O          29.3800   -7.7170   -2.0646 O.2       0 UNK        -0.5197 
      4 N          27.9100   -6.5018   -3.2663 N.am      1 UNK        -0.4892 
      5 CA         27.4128   -5.6485   -2.1914 C.3       1 UNK         0.0835 
      6 C6         28.3991   -4.4880   -1.8858 C.3       12 UNK        -0.0855 
      7 S7         27.8760   -3.4138   -0.5040 S.3       12 UNK        -0.2931 
      8 C8         29.4692   -2.7776    0.0921 C.3       12 UNK         0.0378 
      9 C9         30.0834   -1.7772   -0.8763 C.ar      12 UNK        -0.0802 
     10 C10        31.0745   -2.1845   -1.7740 C.ar      12 UNK        -0.0944 
     11 C11        31.6998   -1.2549   -2.6092 C.ar      12 UNK        -0.0787 
     12 C12        31.3281    0.0904   -2.5409 C.ar      12 UNK        -0.0862 
     13 C13        30.3203    0.5083   -1.6660 C.ar      12 UNK        -0.0733 
     14 C14        29.6976   -0.4329   -0.8392 C.ar      12 UNK        -0.0832 
     15 C15        29.9475    1.9820   -1.5640 C.3       12 UNK         0.0240 
     16 S16        28.5967    2.4447   -2.6950 S.3       12 UNK        -0.2522 
     17 C17        29.4805    2.6184   -4.2891 C.3       12 UNK        -0.0967 
     18 CA         28.7748    1.9211   -5.4790 C.3       5 UNK         0.0660 
     19 N          28.3485    0.5585   -5.1456 N.am      5 UNK        -0.4015 
     20 C          27.8211   -0.3314   -5.9958 C.2       4 UNK         0.4946 
     21 O          27.7386   -0.1441   -7.2090 O.2       4 UNK        -0.5353 
     22 CA         27.2231   -1.6157   -5.3893 C.3       4 UNK         0.0277 
     23 CB         28.2188   -2.7808   -5.4998 C.3       4 UNK        -0.1981 
     24 N          26.7633   -1.4975   -3.9971 N.am      4 UNK        -0.4209 
     25 C          25.8792   -0.5998   -3.5344 C.2       3 UNK         0.4942 
     26 O          25.3968    0.2992   -4.2233 O.2       3 UNK        -0.5208 
     27 CA         25.4834   -0.7361   -2.0531 C.3       3 UNK         0.0250 
     28 CB         24.4485    0.3172   -1.6036 C.3       3 UNK        -0.1990 
     29 N          25.0331   -2.0945   -1.7271 N.am      3 UNK        -0.4232 
     30 C          23.9939   -2.7674   -2.2508 C.2       2 UNK         0.4993 
     31 O          23.1957   -2.2925   -3.0604 O.2       2 UNK        -0.5286 
     32 CA         23.8402   -4.2314   -1.7848 C.3       2 UNK         0.0209 
     33 CB         22.8643   -5.0508   -2.6579 C.3       2 UNK        -0.1931 
     34 N          25.1383   -4.9107   -1.6531 N.am      2 UNK        -0.4546 
     35 C          26.0289   -5.1408   -2.6305 C.2       1 UNK         0.5154 
     36 O          25.8189   -4.9291   -3.8276 O.2       1 UNK        -0.5181 
     37 C          27.6539    2.8107   -6.0666 C.2       5 UNK         0.5014 
     38 O          27.9731    3.7719   -6.7681 O.2       5 UNK        -0.5248 
     39 N          26.3730    2.4753   -5.8364 N.am      6 UNK        -0.4434 
     40 CA         25.2234    3.1203   -6.4823 C.3       6 UNK         0.0363 
     41 CB         23.9212    2.6395   -5.8235 C.3       6 UNK        -0.1936 
     42 C          25.1715    2.8906   -8.0061 C.2       6 UNK         0.5081 
     43 O          24.5655    3.6973   -8.7111 O.2       6 UNK        -0.5248 
     44 N          25.8314    1.8289   -8.4926 N.am      7 UNK        -0.4718 
     45 CA         26.0427    1.5440   -9.9134 C.3       7 UNK         0.0273 
     46 CB         25.8339    0.0391  -10.1607 C.3       7 UNK        -0.1935 
     47 C          27.4152    2.0504  -10.4079 C.2       7 UNK         0.5018 
     48 O          27.8875    1.5927  -11.4502 O.2       7 UNK        -0.5186 
     49 N          28.0217    2.9980   -9.6732 N.am      8 UNK        -0.4240 
     50 CA         29.2491    3.7354   -9.9862 C.3       8 UNK         0.0235 
     51 CB         29.0024    4.7183  -11.1537 C.3       8 UNK        -0.2000 
     52 C          30.4509    2.8003  -10.1945 C.2       8 UNK         0.4941 
     53 O          30.9183    2.2000   -9.2248 O.2       8 UNK        -0.5273 
     54 N          30.9121    2.6685  -11.4468 N.am      9 UNK        -0.4262 
     55 CA         32.0625    1.8676  -11.8859 C.3       9 UNK         0.0264 
     56 CB         32.2389    2.0441  -13.4030 C.3       9 UNK        -0.1955 
     57 C          32.0116    0.3706  -11.5204 C.2       9 UNK         0.5031 
     58 O          33.0474   -0.2933  -11.5823 O.2       9 UNK        -0.5390 
     59 N          30.8344   -0.1292  -11.1206 N.am      10 UNK        -0.4204 
     60 CA         30.6346   -1.4533  -10.5319 C.3       10 UNK         0.0237 
     61 CB         29.1311   -1.6818  -10.3235 C.3       10 UNK        -0.1985 
     62 C          31.3864   -1.6694   -9.2026 C.2       10 UNK         0.4970 
     63 O          31.6982   -2.8199   -8.8924 O.2       10 UNK        -0.4914 
     64 N          31.6660   -0.5940   -8.4498 N.am      11 UNK        -0.4285 
     65 CA         32.4045   -0.6574   -7.1774 C.3       11 UNK         0.1007 
     66 C          33.2339    0.6131   -6.8424 C.2       11 UNK         0.5703 
     67 N          33.0246    1.7524   -7.4887 N.am      11 UNK        -0.7361 
     68 O          34.1120    0.5612   -5.9853 O.2       11 UNK        -0.4986 
     69 C69        31.4925   -1.0970   -5.9945 C.3       12 UNK        -0.0947 
     70 S70        32.1721   -2.5013   -5.0489 S.3       12 UNK        -0.2240 
     71 C71        32.8128   -1.6971   -3.5479 C.3       12 UNK         0.0194 
     72 H72        28.9934   -9.3063   -4.2354 H         1 UNK         0.0906 
     73 H73        28.6419   -7.9118   -5.2587 H         1 UNK         0.0906 
     74 H74        30.2636   -8.1346   -4.5997 H         1 UNK         0.0906 
     75 H75        27.4459   -6.3382   -4.1529 H         1 UNK         0.3140 
     76 H76        27.2850   -6.2600   -1.2950 H         1 UNK         0.1085 
     77 H77        28.5579   -3.8695   -2.7695 H         1 UNK         0.0836 
     78 H78        29.3761   -4.9062   -1.6395 H         1 UNK         0.0836 
     79 H79        30.1524   -3.6082    0.2764 H         1 UNK         0.0731 
     80 H80        29.3136   -2.2978    1.0596 H         1 UNK         0.0731 
     81 H81        31.3777   -3.2221   -1.8089 H         1 UNK         0.1312 
     82 H82        31.8432    0.8119   -3.1586 H         1 UNK         0.1406 
     83 H83        28.9330   -0.1145   -0.1432 H         1 UNK         0.1631 
     84 H84        30.8186    2.6110   -1.7545 H         1 UNK         0.0717 
     85 H85        29.6348    2.2094   -0.5437 H         1 UNK         0.0717 
     86 H86        29.6347    3.6813   -4.4878 H         1 UNK         0.0934 
     87 H87        30.4848    2.2110   -4.1955 H         1 UNK         0.0934 
     88 H88        29.5118    1.8203   -6.2797 H         1 UNK         0.0739 
     89 H89        28.3574    0.3333   -4.1613 H         1 UNK         0.3093 
     90 H90        26.3462   -1.8639   -5.9906 H         1 UNK         0.0818 
     91 H91        27.7521   -3.7293   -5.2371 H         1 UNK         0.0819 
     92 H92        29.0805   -2.6377   -4.8473 H         1 UNK         0.0819 
     93 H93        28.5911   -2.8837   -6.5203 H         1 UNK         0.0819 
     94 H94        27.0923   -2.2051   -3.3577 H         1 UNK         0.3041 
     95 H95        26.3944   -0.5647   -1.4772 H         1 UNK         0.0784 
     96 H96        24.8327    1.3271   -1.7537 H         1 UNK         0.0793 
     97 H97        23.5174    0.2390   -2.1659 H         1 UNK         0.0793 
     98 H98        24.2116    0.2144   -0.5448 H         1 UNK         0.0793 
     99 H99        25.6323   -2.5983   -1.0853 H         1 UNK         0.3024 
    100 H100       23.4134   -4.1803   -0.7815 H         1 UNK         0.1171 
    101 H101       22.7795   -6.0775   -2.3021 H         1 UNK         0.0786 
    102 H102       21.8638   -4.6173   -2.6348 H         1 UNK         0.0786 
    103 H103       23.1777   -5.0816   -3.7018 H         1 UNK         0.0786 
    104 H104       25.4195   -5.1191   -0.7039 H         1 UNK         0.2977 
    105 H105       26.1616    1.6764   -5.2401 H         1 UNK         0.3127 
    106 H106       25.3108    4.1962   -6.3168 H         1 UNK         0.0770 
    107 H107       23.7613    1.5720   -5.9808 H         1 UNK         0.0814 
    108 H108       23.0581    3.1625   -6.2373 H         1 UNK         0.0814 
    109 H109       23.9276    2.8219   -4.7487 H         1 UNK         0.0814 
    110 H110       26.3346    1.2250   -7.8489 H         1 UNK         0.2983 
    111 H111       25.2983    2.0748  -10.5106 H         1 UNK         0.0947 
    112 H112       26.0221   -0.2266  -11.2017 H         1 UNK         0.0806 
    113 H113       24.8080   -0.2533   -9.9371 H         1 UNK         0.0806 
    114 H114       26.4892   -0.5696   -9.5403 H         1 UNK         0.0806 
    115 H115       27.5989    3.2487   -8.7868 H         1 UNK         0.3000 
    116 H116       29.4838    4.3293   -9.1016 H         1 UNK         0.0850 
    117 H117       29.8994    5.2957  -11.3816 H         1 UNK         0.0810 
    118 H118       28.2229    5.4352  -10.8961 H         1 UNK         0.0810 
    119 H119       28.6884    4.2123  -12.0670 H         1 UNK         0.0810 
    120 H120       30.4236    3.1742  -12.1717 H         1 UNK         0.3040 
    121 H121       32.9436    2.2785  -11.3895 H         1 UNK         0.0766 
    122 H122       33.1062    1.4897  -13.7642 H         1 UNK         0.0812 
    123 H123       32.3950    3.0901  -13.6672 H         1 UNK         0.0812 
    124 H124       31.3696    1.6830  -13.9536 H         1 UNK         0.0812 
    125 H125       30.0343    0.4909  -11.1261 H         1 UNK         0.3205 
    126 H126       31.0032   -2.1927  -11.2458 H         1 UNK         0.0754 
    127 H127       28.7283   -0.9745   -9.5988 H         1 UNK         0.0769 
    128 H128       28.9344   -2.6853   -9.9438 H         1 UNK         0.0769 
    129 H129       28.5734   -1.5687  -11.2534 H         1 UNK         0.0769 
    130 H130       31.3796    0.3273   -8.7641 H         1 UNK         0.2981 
    131 H131       33.1734   -1.4190   -7.3235 H         1 UNK         0.0541 
    132 H132       32.2716    1.8689   -8.1634 H         1 UNK         0.3459 
    133 H133       33.5958    2.5468   -7.2508 H         1 UNK         0.3459 
    134 H134       30.5295   -1.4320   -6.3748 H         1 UNK         0.0612 
    135 H135       31.2541   -0.2668   -5.3293 H         1 UNK         0.0612 
    136 H136       33.4459   -0.8538   -3.8250 H         1 UNK         0.0624 
    137 H137       33.4619   -2.4026   -3.0273 H         1 UNK         0.0624 
@<TRIPOS>BOND
     1    1    2 1    
     2    1   72 1    
     3    1   73 1    
     4    1   74 1    
     5    2    3 2    
     6    2    4 am   BACKBONE|DICT|INTERRES
     7    4    5 1    
     8    4   75 1    
     9    5    6 1    
    10    5   35 1    
    11    5   76 1    
    12    6    7 1    
    13    6   77 1    
    14    6   78 1    
    15    7    8 1    
    16    8    9 1    
    17    8   79 1    
    18    8   80 1    
    19    9   10 ar   
    20    9   14 ar   
    21   10   11 ar   
    22   10   81 1    
    23   11   12 ar   
    24   11   71 1    
    25   12   13 ar   
    26   12   82 1    
    27   13   14 ar   
    28   13   15 1    
    29   14   83 1    
    30   15   16 1    
    31   15   84 1    
    32   15   85 1    
    33   16   17 1    
    34   17   18 1    
    35   17   86 1    
    36   17   87 1    
    37   18   19 1    
    38   18   37 1    
    39   18   88 1    
    40   19   20 am   BACKBONE|DICT|INTERRES
    41   19   89 1    
    42   20   21 2    
    43   20   22 1    
    44   22   23 1    
    45   22   24 1    
    46   22   90 1    
    47   23   91 1    
    48   23   92 1    
    49   23   93 1    
    50   24   25 am   BACKBONE|DICT|INTERRES
    51   24   94 1    
    52   25   26 2    
    53   25   27 1    
    54   27   28 1    
    55   27   29 1    
    56   27   95 1    
    57   28   96 1    
    58   28   97 1    
    59   28   98 1    
    60   29   30 am   BACKBONE|DICT|INTERRES
    61   29   99 1    
    62   30   31 2    
    63   30   32 1    
    64   32   33 1    
    65   32   34 1    
    66   32  100 1    
    67   33  101 1    
    68   33  102 1    
    69   33  103 1    
    70   34   35 am   BACKBONE|DICT|INTERRES
    71   34  104 1    
    72   35   36 2    
    73   37   38 2    
    74   37   39 am   BACKBONE|DICT|INTERRES
    75   39   40 1    
    76   39  105 1    
    77   40   41 1    
    78   40   42 1    
    79   40  106 1    
    80   41  107 1    
    81   41  108 1    
    82   41  109 1    
    83   42   43 2    
    84   42   44 am   BACKBONE|DICT|INTERRES
    85   44   45 1    
    86   44  110 1    
    87   45   46 1    
    88   45   47 1    
    89   45  111 1    
    90   46  112 1    
    91   46  113 1    
    92   46  114 1    
    93   47   48 2    
    94   47   49 am   BACKBONE|DICT|INTERRES
    95   49   50 1    
    96   49  115 1    
    97   50   51 1    
    98   50   52 1    
    99   50  116 1    
   100   51  117 1    
   101   51  118 1    
   102   51  119 1    
   103   52   53 2    
   104   52   54 am   BACKBONE|DICT|INTERRES
   105   54   55 1    
   106   54  120 1    
   107   55   56 1    
   108   55   57 1    
   109   55  121 1    
   110   56  122 1    
   111   56  123 1    
   112   56  124 1    
   113   57   58 2    
   114   57   59 am   BACKBONE|DICT|INTERRES
   115   59   60 1    
   116   59  125 1    
   117   60   61 1    
   118   60   62 1    
   119   60  126 1    
   120   61  127 1    
   121   61  128 1    
   122   61  129 1    
   123   62   63 2    
   124   62   64 am   BACKBONE|DICT|INTERRES
   125   64   65 1    
   126   64  130 1    
   127   65   66 1    
   128   65   69 1    
   129   65  131 1    
   130   66   67 am   BACKBONE|DICT|INTERRES
   131   66   68 2    
   132   67  132 1    
   133   67  133 1    
   134   69   70 1    
   135   69  134 1    
   136   69  135 1    
   137   70   71 1    
   138   71  136 1    
   139   71  137 1    
@<TRIPOS>SUBSTRUCTURE
     1 UNK         1 GROUP             0       ****    0 ROOT    
