@<TRIPOS>MOLECULE
3R137
137   139    1
SMALL
USER_CHARGES


@<TRIPOS>ATOM
      1 CA         29.8511    1.6458   -2.5249 C.3       0 UNK        -0.2020 
      2 C          29.6243    0.1471   -2.4149 C.2       0 UNK         0.4855 
      3 O          29.3470   -0.5136   -3.4144 O.2       0 UNK        -0.5197 
      4 N          29.7378   -0.3964   -1.1966 N.am      1 UNK        -0.4892 
      5 CA         29.5468   -1.8166   -0.8827 C.3       1 UNK         0.0835 
      6 C6         30.3643   -2.2079    0.3801 C.3       12 UNK        -0.0855 
      7 S7         30.7775   -3.9717    0.6884 S.3       12 UNK        -0.2931 
      8 C8         29.8115   -5.0185   -0.4636 C.3       12 UNK         0.0378 
      9 C9         30.2168   -4.9133   -1.9323 C.ar      12 UNK        -0.0802 
     10 C10        31.5473   -4.7032   -2.3121 C.ar      12 UNK        -0.0944 
     11 C11        31.8902   -4.5793   -3.6596 C.ar      12 UNK        -0.0787 
     12 C12        30.9003   -4.7103   -4.6369 C.ar      12 UNK        -0.0862 
     13 C13        29.5628   -4.9150   -4.2783 C.ar      12 UNK        -0.0733 
     14 C14        29.2346   -5.0230   -2.9230 C.ar      12 UNK        -0.0832 
     15 C15        28.4565   -5.0454   -5.3265 C.3       12 UNK         0.0240 
     16 S16        28.7304   -4.0896   -6.8578 S.3       12 UNK        -0.2522 
     17 C17        28.7421   -2.3698   -6.2514 C.3       12 UNK        -0.0967 
     18 CA         27.8284   -1.4713   -7.1161 C.3       5 UNK         0.0660 
     19 N          26.4036   -1.7497   -6.9176 N.am      5 UNK        -0.4015 
     20 C          25.4339   -1.3501   -7.7518 C.2       4 UNK         0.4946 
     21 O          25.6364   -0.7105   -8.7844 O.2       4 UNK        -0.5353 
     22 CA         23.9909   -1.6937   -7.3467 C.3       4 UNK         0.0277 
     23 CB         23.6890   -3.1787   -7.6060 C.3       4 UNK        -0.1981 
     24 N          23.7018   -1.3646   -5.9485 N.am      4 UNK        -0.4209 
     25 C          23.6915   -0.1177   -5.4560 C.2       3 UNK         0.4942 
     26 O          23.8953    0.8882   -6.1335 O.2       3 UNK        -0.5208 
     27 CA         23.4504    0.0399   -3.9449 C.3       3 UNK         0.0250 
     28 CB         21.9434    0.0648   -3.6429 C.3       3 UNK        -0.1990 
     29 N          24.1047   -0.9647   -3.0963 N.am      3 UNK        -0.4232 
     30 C          25.4051   -1.2876   -3.1269 C.2       2 UNK         0.4993 
     31 O          26.1989   -0.8812   -3.9786 O.2       2 UNK        -0.5286 
     32 CA         25.8975   -2.2435   -2.0375 C.3       2 UNK         0.0209 
     33 CB         25.5577   -3.7028   -2.3831 C.3       2 UNK        -0.1931 
     34 N          27.3441   -2.0886   -1.9144 N.am      2 UNK        -0.4546 
     35 C          28.0375   -2.1265   -0.7734 C.2       1 UNK         0.5154 
     36 O          27.5249   -2.3570    0.3237 O.2       1 UNK        -0.5181 
     37 C          28.1509    0.0191   -6.9150 C.2       5 UNK         0.5014 
     38 O          28.9857    0.5474   -7.6509 O.2       5 UNK        -0.5248 
     39 N          27.4657    0.6769   -5.9697 N.am      6 UNK        -0.4434 
     40 CA         27.5396    2.1190   -5.7397 C.3       6 UNK         0.0363 
     41 CB         26.7618    2.4813   -4.4647 C.3       6 UNK        -0.1936 
     42 C          27.0277    2.9278   -6.9433 C.2       6 UNK         0.5081 
     43 O          27.7132    3.8516   -7.3804 O.2       6 UNK        -0.5248 
     44 N          25.8573    2.5498   -7.4799 N.am      7 UNK        -0.4718 
     45 CA         25.2447    3.1663   -8.6616 C.3       7 UNK         0.0273 
     46 CB         23.8140    2.6355   -8.8433 C.3       7 UNK        -0.1935 
     47 C          26.0638    2.9559   -9.9450 C.2       7 UNK         0.5018 
     48 O          26.1813    3.8849  -10.7449 O.2       7 UNK        -0.5186 
     49 N          26.6339    1.7539  -10.1079 N.am      8 UNK        -0.4240 
     50 CA         27.5307    1.4071  -11.2140 C.3       8 UNK         0.0235 
     51 CB         27.6560   -0.1237  -11.2922 C.3       8 UNK        -0.2000 
     52 C          28.9295    2.0435  -11.1044 C.2       8 UNK         0.4941 
     53 O          29.6526    2.0518  -12.1013 O.2       8 UNK        -0.5273 
     54 N          29.2981    2.5204   -9.9039 N.am      9 UNK        -0.4262 
     55 CA         30.6334    2.9751   -9.4931 C.3       9 UNK         0.0264 
     56 CB         31.0398    4.2642  -10.2380 C.3       9 UNK        -0.1955 
     57 C          31.6846    1.8504   -9.6001 C.2       9 UNK         0.5031 
     58 O          32.8280    2.0986   -9.9882 O.2       9 UNK        -0.5390 
     59 N          31.2613    0.6252   -9.2650 N.am      10 UNK        -0.4204 
     60 CA         32.0542   -0.6011   -9.3491 C.3       10 UNK         0.0237 
     61 CB         31.1159   -1.7694   -9.6968 C.3       10 UNK        -0.1985 
     62 C          32.8195   -0.9022   -8.0510 C.2       10 UNK         0.4970 
     63 O          33.7333   -1.7274   -8.0774 O.2       10 UNK        -0.4914 
     64 N          32.4363   -0.2539   -6.9463 N.am      11 UNK        -0.4285 
     65 CA         33.0184   -0.4249   -5.6128 C.3       11 UNK         0.1007 
     66 C          32.8246    0.8570   -4.7586 C.2       11 UNK         0.5703 
     67 N          33.3312    0.8717   -3.5339 N.am      11 UNK        -0.7361 
     68 O          32.2337    1.8434   -5.1969 O.2       11 UNK        -0.4986 
     69 C69        32.4937   -1.7171   -4.9263 C.3       12 UNK        -0.0947 
     70 S70        33.7128   -2.5023   -3.8196 S.3       12 UNK        -0.2240 
     71 C71        33.3260   -4.2682   -4.0573 C.3       12 UNK         0.0194 
     72 H72        29.0073    2.1921   -2.1049 H         1 UNK         0.0906 
     73 H73        29.9631    1.9393   -3.5681 H         1 UNK         0.0906 
     74 H74        30.7556    1.9418   -1.9945 H         1 UNK         0.0906 
     75 H75        29.9321    0.2034   -0.4069 H         1 UNK         0.3140 
     76 H76        29.9453   -2.3741   -1.7291 H         1 UNK         0.1085 
     77 H77        29.8921   -1.8098    1.2803 H         1 UNK         0.0836 
     78 H78        31.3317   -1.7047    0.3325 H         1 UNK         0.0836 
     79 H79        29.9494   -6.0572   -0.1606 H         1 UNK         0.0731 
     80 H80        28.7490   -4.8140   -0.3307 H         1 UNK         0.0731 
     81 H81        32.3191   -4.6072   -1.5610 H         1 UNK         0.1312 
     82 H82        31.1743   -4.6303   -5.6793 H         1 UNK         0.1406 
     83 H83        28.2053   -5.1912   -2.6367 H         1 UNK         0.1631 
     84 H84        27.4974   -4.7429   -4.9074 H         1 UNK         0.0717 
     85 H85        28.3582   -6.0986   -5.5916 H         1 UNK         0.0717 
     86 H86        28.4443   -2.3304   -5.2019 H         1 UNK         0.0934 
     87 H87        29.7766   -2.0227   -6.2841 H         1 UNK         0.0934 
     88 H88        28.0514   -1.6848   -8.1637 H         1 UNK         0.0739 
     89 H89        26.1498   -2.2037   -6.0529 H         1 UNK         0.3093 
     90 H90        23.3241   -1.0976   -7.9739 H         1 UNK         0.0818 
     91 H91        23.8888   -3.4399   -8.6463 H         1 UNK         0.0819 
     92 H92        24.2983   -3.8348   -6.9831 H         1 UNK         0.0819 
     93 H93        22.6413   -3.4097   -7.4123 H         1 UNK         0.0819 
     94 H94        23.5242   -2.1319   -5.3172 H         1 UNK         0.3041 
     95 H95        23.8639    1.0083   -3.6575 H         1 UNK         0.0784 
     96 H96        21.4359    0.8169   -4.2492 H         1 UNK         0.0793 
     97 H97        21.4721   -0.8960   -3.8538 H         1 UNK         0.0793 
     98 H98        21.7507    0.3122   -2.5988 H         1 UNK         0.0793 
     99 H99        23.5278   -1.3745   -2.3755 H         1 UNK         0.3024 
    100 H100       25.4157   -1.9661   -1.0968 H         1 UNK         0.1171 
    101 H101       24.4787   -3.8538   -2.4331 H         1 UNK         0.0786 
    102 H102       25.9433   -4.3887   -1.6287 H         1 UNK         0.0786 
    103 H103       25.9714   -3.9946   -3.3474 H         1 UNK         0.0786 
    104 H104       27.8107   -1.7426   -2.7507 H         1 UNK         0.2977 
    105 H105       26.8686    0.1402   -5.3418 H         1 UNK         0.3127 
    106 H106       28.5905    2.3721   -5.5855 H         1 UNK         0.0770 
    107 H107       27.0871    1.8816   -3.6153 H         1 UNK         0.0814 
    108 H108       26.9103    3.5297   -4.2039 H         1 UNK         0.0814 
    109 H109       25.6903    2.3247   -4.5869 H         1 UNK         0.0814 
    110 H110       25.3269    1.8050   -7.0330 H         1 UNK         0.2983 
    111 H111       25.1884    4.2422   -8.4825 H         1 UNK         0.0947 
    112 H112       23.8000    1.5529   -8.9768 H         1 UNK         0.0806 
    113 H113       23.3380    3.0807   -9.7180 H         1 UNK         0.0806 
    114 H114       23.1918    2.8728   -7.9802 H         1 UNK         0.0806 
    115 H115       26.4217    1.0165   -9.4408 H         1 UNK         0.3000 
    116 H116       27.0821    1.7626  -12.1441 H         1 UNK         0.0850 
    117 H117       28.2914   -0.4247  -12.1263 H         1 UNK         0.0810 
    118 H118       26.6839   -0.5947  -11.4393 H         1 UNK         0.0810 
    119 H119       28.0934   -0.5370  -10.3828 H         1 UNK         0.0810 
    120 H120       28.6242    2.4497   -9.1515 H         1 UNK         0.3040 
    121 H121       30.5552    3.2172   -8.4319 H         1 UNK         0.0766 
    122 H122       31.2010    4.0859  -11.3015 H         1 UNK         0.0812 
    123 H123       31.9672    4.6716   -9.8337 H         1 UNK         0.0812 
    124 H124       30.2764    5.0357  -10.1381 H         1 UNK         0.0812 
    125 H125       30.3256    0.5417   -8.8674 H         1 UNK         0.3205 
    126 H126       32.7888   -0.5022  -10.1511 H         1 UNK         0.0754 
    127 H127       31.6754   -2.6981   -9.8168 H         1 UNK         0.0769 
    128 H128       30.5864   -1.5879  -10.6324 H         1 UNK         0.0769 
    129 H129       30.3730   -1.9369   -8.9168 H         1 UNK         0.0769 
    130 H130       31.7134    0.4511   -7.0035 H         1 UNK         0.2981 
    131 H131       34.0968   -0.5119   -5.7585 H         1 UNK         0.0541 
    132 H132       33.2365    1.7006   -2.9698 H         1 UNK         0.3459 
    133 H133       33.8038    0.0592   -3.1678 H         1 UNK         0.3459 
    134 H134       32.2344   -2.4527   -5.6876 H         1 UNK         0.0612 
    135 H135       31.5722   -1.5340   -4.3729 H         1 UNK         0.0612 
    136 H136       34.0121   -4.8664   -3.4562 H         1 UNK         0.0624 
    137 H137       33.5091   -4.5415   -5.0977 H         1 UNK         0.0624 
@<TRIPOS>BOND
     1    1    2 1    
     2    1   72 1    
     3    1   73 1    
     4    1   74 1    
     5    2    3 2    
     6    2    4 am   BACKBONE|DICT|INTERRES
     7    4    5 1    
     8    4   75 1    
     9    5    6 1    
    10    5   35 1    
    11    5   76 1    
    12    6    7 1    
    13    6   77 1    
    14    6   78 1    
    15    7    8 1    
    16    8    9 1    
    17    8   79 1    
    18    8   80 1    
    19    9   10 ar   
    20    9   14 ar   
    21   10   11 ar   
    22   10   81 1    
    23   11   12 ar   
    24   11   71 1    
    25   12   13 ar   
    26   12   82 1    
    27   13   14 ar   
    28   13   15 1    
    29   14   83 1    
    30   15   16 1    
    31   15   84 1    
    32   15   85 1    
    33   16   17 1    
    34   17   18 1    
    35   17   86 1    
    36   17   87 1    
    37   18   19 1    
    38   18   37 1    
    39   18   88 1    
    40   19   20 am   BACKBONE|DICT|INTERRES
    41   19   89 1    
    42   20   21 2    
    43   20   22 1    
    44   22   23 1    
    45   22   24 1    
    46   22   90 1    
    47   23   91 1    
    48   23   92 1    
    49   23   93 1    
    50   24   25 am   BACKBONE|DICT|INTERRES
    51   24   94 1    
    52   25   26 2    
    53   25   27 1    
    54   27   28 1    
    55   27   29 1    
    56   27   95 1    
    57   28   96 1    
    58   28   97 1    
    59   28   98 1    
    60   29   30 am   BACKBONE|DICT|INTERRES
    61   29   99 1    
    62   30   31 2    
    63   30   32 1    
    64   32   33 1    
    65   32   34 1    
    66   32  100 1    
    67   33  101 1    
    68   33  102 1    
    69   33  103 1    
    70   34   35 am   BACKBONE|DICT|INTERRES
    71   34  104 1    
    72   35   36 2    
    73   37   38 2    
    74   37   39 am   BACKBONE|DICT|INTERRES
    75   39   40 1    
    76   39  105 1    
    77   40   41 1    
    78   40   42 1    
    79   40  106 1    
    80   41  107 1    
    81   41  108 1    
    82   41  109 1    
    83   42   43 2    
    84   42   44 am   BACKBONE|DICT|INTERRES
    85   44   45 1    
    86   44  110 1    
    87   45   46 1    
    88   45   47 1    
    89   45  111 1    
    90   46  112 1    
    91   46  113 1    
    92   46  114 1    
    93   47   48 2    
    94   47   49 am   BACKBONE|DICT|INTERRES
    95   49   50 1    
    96   49  115 1    
    97   50   51 1    
    98   50   52 1    
    99   50  116 1    
   100   51  117 1    
   101   51  118 1    
   102   51  119 1    
   103   52   53 2    
   104   52   54 am   BACKBONE|DICT|INTERRES
   105   54   55 1    
   106   54  120 1    
   107   55   56 1    
   108   55   57 1    
   109   55  121 1    
   110   56  122 1    
   111   56  123 1    
   112   56  124 1    
   113   57   58 2    
   114   57   59 am   BACKBONE|DICT|INTERRES
   115   59   60 1    
   116   59  125 1    
   117   60   61 1    
   118   60   62 1    
   119   60  126 1    
   120   61  127 1    
   121   61  128 1    
   122   61  129 1    
   123   62   63 2    
   124   62   64 am   BACKBONE|DICT|INTERRES
   125   64   65 1    
   126   64  130 1    
   127   65   66 1    
   128   65   69 1    
   129   65  131 1    
   130   66   67 am   BACKBONE|DICT|INTERRES
   131   66   68 2    
   132   67  132 1    
   133   67  133 1    
   134   69   70 1    
   135   69  134 1    
   136   69  135 1    
   137   70   71 1    
   138   71  136 1    
   139   71  137 1    
@<TRIPOS>SUBSTRUCTURE
     1 UNK         1 GROUP             0       ****    0 ROOT    
