@<TRIPOS>MOLECULE
3R137
137   139    1
SMALL
USER_CHARGES


@<TRIPOS>ATOM
      1 CA         24.8701   -7.5997   -1.4562 C.3       0 UNK        -0.2020 
      2 C          25.5326   -6.4521   -0.7090 C.2       0 UNK         0.4855 
      3 O          25.2057   -6.2087    0.4527 O.2       0 UNK        -0.5197 
      4 N          26.4619   -5.7446   -1.3661 N.am      1 UNK        -0.4892 
      5 CA         27.1866   -4.5933   -0.8076 C.3       1 UNK         0.0835 
      6 C6         28.4679   -4.2921   -1.6269 C.3       12 UNK        -0.0855 
      7 S7         29.7953   -3.5720   -0.6041 S.3       12 UNK        -0.2931 
      8 C8         31.2528   -3.8702   -1.6523 C.3       12 UNK         0.0378 
      9 C9         31.2324   -2.9986   -2.8988 C.ar      12 UNK        -0.0802 
     10 C10        31.7279   -1.6924   -2.8483 C.ar      12 UNK        -0.0944 
     11 C11        31.7299   -0.8909   -3.9929 C.ar      12 UNK        -0.0787 
     12 C12        31.2081   -1.3960   -5.1876 C.ar      12 UNK        -0.0862 
     13 C13        30.7015   -2.6977   -5.2502 C.ar      12 UNK        -0.0733 
     14 C14        30.7315   -3.4996   -4.1044 C.ar      12 UNK        -0.0832 
     15 C15        30.1532   -3.2354   -6.5676 C.3       12 UNK         0.0240 
     16 S16        28.5072   -4.0186   -6.4243 S.3       12 UNK        -0.2522 
     17 C17        27.4856   -2.7331   -5.6260 C.3       12 UNK        -0.0967 
     18 CA         26.8742   -1.7265   -6.6347 C.3       5 UNK         0.0660 
     19 N          25.5893   -1.1920   -6.1777 N.am      5 UNK        -0.4015 
     20 C          24.7156   -0.5459   -6.9679 C.2       4 UNK         0.4946 
     21 O          24.8520   -0.4351   -8.1854 O.2       4 UNK        -0.5353 
     22 CA         23.4924    0.1152   -6.3021 C.3       4 UNK         0.0277 
     23 CB         22.2714   -0.8151   -6.3824 C.3       4 UNK        -0.1981 
     24 N          23.7131    0.5008   -4.9071 N.am      4 UNK        -0.4209 
     25 C          24.6414    1.3694   -4.4798 C.2       3 UNK         0.4942 
     26 O          25.3525    2.0316   -5.2337 O.2       3 UNK        -0.5208 
     27 CA         24.8633    1.4651   -2.9582 C.3       3 UNK         0.0250 
     28 CB         24.1222    2.6830   -2.3847 C.3       3 UNK        -0.1990 
     29 N          24.4723    0.2587   -2.2137 N.am      3 UNK        -0.4232 
     30 C          24.9699   -0.9701   -2.4171 C.2       2 UNK         0.4993 
     31 O          25.8145   -1.2325   -3.2787 O.2       2 UNK        -0.5286 
     32 CA         24.3445   -2.1023   -1.5888 C.3       2 UNK         0.0209 
     33 CB         23.0249   -2.5629   -2.2317 C.3       2 UNK        -0.1931 
     34 N          25.2456   -3.2502   -1.5025 N.am      2 UNK        -0.4546 
     35 C          26.2944   -3.3370   -0.6733 C.2       1 UNK         0.5154 
     36 O          26.5561   -2.4857    0.1787 O.2       1 UNK        -0.5181 
     37 C          27.8458   -0.5731   -6.9386 C.2       5 UNK         0.5014 
     38 O          28.3897   -0.5099   -8.0404 O.2       5 UNK        -0.5248 
     39 N          28.0060    0.3456   -5.9739 N.am      6 UNK        -0.4434 
     40 CA         28.8758    1.5215   -6.0766 C.3       6 UNK         0.0363 
     41 CB         28.9616    2.2171   -4.7097 C.3       6 UNK        -0.1936 
     42 C          28.4508    2.5148   -7.1738 C.2       6 UNK         0.5081 
     43 O          29.3001    3.2137   -7.7256 O.2       6 UNK        -0.5248 
     44 N          27.1535    2.5454   -7.4956 N.am      7 UNK        -0.4718 
     45 CA         26.6004    3.2859   -8.6281 C.3       7 UNK         0.0273 
     46 CB         25.0816    3.4216   -8.4313 C.3       7 UNK        -0.1935 
     47 C          26.9059    2.6427   -9.9963 C.2       7 UNK         0.5018 
     48 O          26.7544    3.3270  -11.0098 O.2       7 UNK        -0.5186 
     49 N          27.2877    1.3567  -10.0201 N.am      8 UNK        -0.4240 
     50 CA         27.4347    0.5587  -11.2375 C.3       8 UNK         0.0235 
     51 CB         26.5882   -0.7187  -11.1052 C.3       8 UNK        -0.2000 
     52 C          28.8901    0.1910  -11.5582 C.2       8 UNK         0.4941 
     53 O          29.2518    0.2226  -12.7361 O.2       8 UNK        -0.5273 
     54 N          29.6893   -0.1911  -10.5522 N.am      9 UNK        -0.4262 
     55 CA         31.0114   -0.7891  -10.7541 C.3       9 UNK         0.0264 
     56 CB         30.8477   -2.3156  -10.8921 C.3       9 UNK        -0.1955 
     57 C          31.9783   -0.4553   -9.6124 C.2       9 UNK         0.5031 
     58 O          31.5490   -0.0448   -8.5320 O.2       9 UNK        -0.5390 
     59 N          33.2743   -0.6849   -9.8770 N.am      10 UNK        -0.4204 
     60 CA         34.4130   -0.5412   -8.9624 C.3       10 UNK         0.0237 
     61 CB         34.3710   -1.6526   -7.8848 C.3       10 UNK        -0.1985 
     62 C          34.5143    0.8896   -8.3989 C.2       10 UNK         0.4970 
     63 O          34.6508    1.8350   -9.1770 O.2       10 UNK        -0.4914 
     64 N          34.4287    1.0174   -7.0719 N.am      11 UNK        -0.4285 
     65 CA         34.2968    2.2695   -6.3124 C.3       11 UNK         0.1007 
     66 C          32.9783    3.0613   -6.5637 C.2       11 UNK         0.5703 
     67 N          32.0010    2.5209   -7.2775 N.am      11 UNK        -0.7361 
     68 O          32.8482    4.1936   -6.1049 O.2       11 UNK        -0.4986 
     69 C69        34.5727    2.0553   -4.7893 C.3       12 UNK        -0.0947 
     70 S70        34.1359    0.4031   -4.1346 S.3       12 UNK        -0.2240 
     71 C71        32.3309    0.5046   -3.9493 C.3       12 UNK         0.0194 
     72 H72        25.2572   -7.7063   -2.4694 H         1 UNK         0.0906 
     73 H73        25.0398   -8.5380   -0.9287 H         1 UNK         0.0906 
     74 H74        23.7948   -7.4346   -1.5198 H         1 UNK         0.0906 
     75 H75        26.6960   -5.9975   -2.3162 H         1 UNK         0.3140 
     76 H76        27.4844   -4.8738    0.2058 H         1 UNK         0.1085 
     77 H77        28.8611   -5.2165   -2.0534 H         1 UNK         0.0836 
     78 H78        28.2609   -3.6361   -2.4757 H         1 UNK         0.0836 
     79 H79        32.1525   -3.6587   -1.0722 H         1 UNK         0.0731 
     80 H80        31.3075   -4.9268   -1.9193 H         1 UNK         0.0731 
     81 H81        32.1296   -1.3053   -1.9218 H         1 UNK         0.1312 
     82 H82        31.2119   -0.7800   -6.0761 H         1 UNK         0.1406 
     83 H83        30.3535   -4.5118   -4.1511 H         1 UNK         0.1631 
     84 H84        30.8544   -3.9741   -6.9574 H         1 UNK         0.0717 
     85 H85        30.1051   -2.4457   -7.3183 H         1 UNK         0.0717 
     86 H86        26.6830   -3.2703   -5.1180 H         1 UNK         0.0934 
     87 H87        28.0389   -2.2386   -4.8251 H         1 UNK         0.0934 
     88 H88        26.6821   -2.2530   -7.5726 H         1 UNK         0.0739 
     89 H89        25.4318   -1.2166   -5.1739 H         1 UNK         0.3093 
     90 H90        23.2686    1.0252   -6.8625 H         1 UNK         0.0818 
     91 H91        21.3744   -0.3287   -5.9986 H         1 UNK         0.0819 
     92 H92        22.0657   -1.0991   -7.4156 H         1 UNK         0.0819 
     93 H93        22.4250   -1.7349   -5.8165 H         1 UNK         0.0819 
     94 H94        23.1662    0.0157   -4.2117 H         1 UNK         0.3041 
     95 H95        25.9341    1.6110   -2.8011 H         1 UNK         0.0784 
     96 H96        24.4137    3.5971   -2.9045 H         1 UNK         0.0793 
     97 H97        23.0406    2.5826   -2.4844 H         1 UNK         0.0793 
     98 H98        24.3516    2.8275   -1.3288 H         1 UNK         0.0793 
     99 H99        23.7675    0.3843   -1.5006 H         1 UNK         0.3024 
    100 H100       24.1424   -1.7329   -0.5805 H         1 UNK         0.1171 
    101 H101       22.2991   -1.7497   -2.2719 H         1 UNK         0.0786 
    102 H102       22.5676   -3.3707   -1.6596 H         1 UNK         0.0786 
    103 H103       23.1735   -2.9191   -3.2523 H         1 UNK         0.0786 
    104 H104       25.1175   -3.9835   -2.1834 H         1 UNK         0.2977 
    105 H105       27.4879    0.2395   -5.1134 H         1 UNK         0.3127 
    106 H106       29.8696    1.1584   -6.3394 H         1 UNK         0.0770 
    107 H107       27.9920    2.6028   -4.3923 H         1 UNK         0.0814 
    108 H108       29.6529    3.0602   -4.7477 H         1 UNK         0.0814 
    109 H109       29.3239    1.5366   -3.9389 H         1 UNK         0.0814 
    110 H110       26.5006    2.0294   -6.9145 H         1 UNK         0.2983 
    111 H111       27.0371    4.2871   -8.6321 H         1 UNK         0.0947 
    112 H112       24.6368    4.0261   -9.2228 H         1 UNK         0.0806 
    113 H113       24.8443    3.9034   -7.4824 H         1 UNK         0.0806 
    114 H114       24.5879    2.4495   -8.4469 H         1 UNK         0.0806 
    115 H115       27.4432    0.8698   -9.1434 H         1 UNK         0.3000 
    116 H116       27.0501    1.1124  -12.0968 H         1 UNK         0.0850 
    117 H117       26.6695   -1.3387  -11.9990 H         1 UNK         0.0810 
    118 H118       25.5330   -0.4801  -10.9703 H         1 UNK         0.0810 
    119 H119       26.9013   -1.3262  -10.2550 H         1 UNK         0.0810 
    120 H120       29.3501   -0.1853   -9.5899 H         1 UNK         0.3040 
    121 H121       31.4547   -0.3929  -11.6703 H         1 UNK         0.0766 
    122 H122       31.8072   -2.8103  -11.0471 H         1 UNK         0.0812 
    123 H123       30.2150   -2.5718  -11.7421 H         1 UNK         0.0812 
    124 H124       30.3968   -2.7497   -9.9985 H         1 UNK         0.0812 
    125 H125       33.5148   -0.9864  -10.8111 H         1 UNK         0.3205 
    126 H126       35.3136   -0.6945   -9.5588 H         1 UNK         0.0754 
    127 H127       35.2485   -1.6138   -7.2377 H         1 UNK         0.0769 
    128 H128       34.3639   -2.6401   -8.3463 H         1 UNK         0.0769 
    129 H129       33.4847   -1.5847   -7.2524 H         1 UNK         0.0769 
    130 H130       34.3111    0.1808   -6.5190 H         1 UNK         0.2981 
    131 H131       35.0805    2.9315   -6.6852 H         1 UNK         0.0541 
    132 H132       32.0797    1.5871   -7.6680 H         1 UNK         0.3459 
    133 H133       31.1400    3.0361   -7.4323 H         1 UNK         0.3459 
    134 H134       34.1033    2.8206   -4.1680 H         1 UNK         0.0612 
    135 H135       35.6434    2.1722   -4.6161 H         1 UNK         0.0612 
    136 H136       32.0863    0.9984   -3.0078 H         1 UNK         0.0624 
    137 H137       31.9036    1.1167   -4.7426 H         1 UNK         0.0624 
@<TRIPOS>BOND
     1    1    2 1    
     2    1   72 1    
     3    1   73 1    
     4    1   74 1    
     5    2    3 2    
     6    2    4 am   BACKBONE|DICT|INTERRES
     7    4    5 1    
     8    4   75 1    
     9    5    6 1    
    10    5   35 1    
    11    5   76 1    
    12    6    7 1    
    13    6   77 1    
    14    6   78 1    
    15    7    8 1    
    16    8    9 1    
    17    8   79 1    
    18    8   80 1    
    19    9   10 ar   
    20    9   14 ar   
    21   10   11 ar   
    22   10   81 1    
    23   11   12 ar   
    24   11   71 1    
    25   12   13 ar   
    26   12   82 1    
    27   13   14 ar   
    28   13   15 1    
    29   14   83 1    
    30   15   16 1    
    31   15   84 1    
    32   15   85 1    
    33   16   17 1    
    34   17   18 1    
    35   17   86 1    
    36   17   87 1    
    37   18   19 1    
    38   18   37 1    
    39   18   88 1    
    40   19   20 am   BACKBONE|DICT|INTERRES
    41   19   89 1    
    42   20   21 2    
    43   20   22 1    
    44   22   23 1    
    45   22   24 1    
    46   22   90 1    
    47   23   91 1    
    48   23   92 1    
    49   23   93 1    
    50   24   25 am   BACKBONE|DICT|INTERRES
    51   24   94 1    
    52   25   26 2    
    53   25   27 1    
    54   27   28 1    
    55   27   29 1    
    56   27   95 1    
    57   28   96 1    
    58   28   97 1    
    59   28   98 1    
    60   29   30 am   BACKBONE|DICT|INTERRES
    61   29   99 1    
    62   30   31 2    
    63   30   32 1    
    64   32   33 1    
    65   32   34 1    
    66   32  100 1    
    67   33  101 1    
    68   33  102 1    
    69   33  103 1    
    70   34   35 am   BACKBONE|DICT|INTERRES
    71   34  104 1    
    72   35   36 2    
    73   37   38 2    
    74   37   39 am   BACKBONE|DICT|INTERRES
    75   39   40 1    
    76   39  105 1    
    77   40   41 1    
    78   40   42 1    
    79   40  106 1    
    80   41  107 1    
    81   41  108 1    
    82   41  109 1    
    83   42   43 2    
    84   42   44 am   BACKBONE|DICT|INTERRES
    85   44   45 1    
    86   44  110 1    
    87   45   46 1    
    88   45   47 1    
    89   45  111 1    
    90   46  112 1    
    91   46  113 1    
    92   46  114 1    
    93   47   48 2    
    94   47   49 am   BACKBONE|DICT|INTERRES
    95   49   50 1    
    96   49  115 1    
    97   50   51 1    
    98   50   52 1    
    99   50  116 1    
   100   51  117 1    
   101   51  118 1    
   102   51  119 1    
   103   52   53 2    
   104   52   54 am   BACKBONE|DICT|INTERRES
   105   54   55 1    
   106   54  120 1    
   107   55   56 1    
   108   55   57 1    
   109   55  121 1    
   110   56  122 1    
   111   56  123 1    
   112   56  124 1    
   113   57   58 2    
   114   57   59 am   BACKBONE|DICT|INTERRES
   115   59   60 1    
   116   59  125 1    
   117   60   61 1    
   118   60   62 1    
   119   60  126 1    
   120   61  127 1    
   121   61  128 1    
   122   61  129 1    
   123   62   63 2    
   124   62   64 am   BACKBONE|DICT|INTERRES
   125   64   65 1    
   126   64  130 1    
   127   65   66 1    
   128   65   69 1    
   129   65  131 1    
   130   66   67 am   BACKBONE|DICT|INTERRES
   131   66   68 2    
   132   67  132 1    
   133   67  133 1    
   134   69   70 1    
   135   69  134 1    
   136   69  135 1    
   137   70   71 1    
   138   71  136 1    
   139   71  137 1    
@<TRIPOS>SUBSTRUCTURE
     1 UNK         1 GROUP             0       ****    0 ROOT    
