@<TRIPOS>MOLECULE
3R137
137   139    1
SMALL
USER_CHARGES


@<TRIPOS>ATOM
      1 CA         25.8947   -6.9758    1.2373 C.3       0 UNK        -0.2020 
      2 C          26.4744   -5.7775    0.5015 C.2       0 UNK         0.4855 
      3 O          26.6122   -5.8215   -0.7217 O.2       0 UNK        -0.5197 
      4 N          26.8054   -4.7050    1.2359 N.am      1 UNK        -0.4892 
      5 CA         27.3745   -3.4325    0.7645 C.3       1 UNK         0.0835 
      6 C6         28.7114   -3.6141   -0.0054 C.3       12 UNK        -0.0855 
      7 S7         29.7440   -2.1100   -0.0653 S.3       12 UNK        -0.2931 
      8 C8         29.2431   -1.3367   -1.6386 C.3       12 UNK         0.0378 
      9 C9         29.8434   -2.0200   -2.8604 C.ar      12 UNK        -0.0802 
     10 C10        31.0386   -1.5477   -3.4072 C.ar      12 UNK        -0.0944 
     11 C11        31.5711   -2.1226   -4.5660 C.ar      12 UNK        -0.0787 
     12 C12        30.9220   -3.2174   -5.1493 C.ar      12 UNK        -0.0862 
     13 C13        29.7396   -3.7198   -4.5946 C.ar      12 UNK        -0.0733 
     14 C14        29.1905   -3.0943   -3.4712 C.ar      12 UNK        -0.0832 
     15 C15        29.0857   -4.9742   -5.1648 C.3       12 UNK         0.0240 
     16 S16        28.1143   -4.6724   -6.6748 S.3       12 UNK        -0.2522 
     17 C17        26.7353   -3.6502   -6.0509 C.3       12 UNK        -0.0967 
     18 CA         26.4923   -2.3776   -6.8968 C.3       5 UNK         0.0660 
     19 N          25.2902   -1.6583   -6.4744 N.am      5 UNK        -0.4015 
     20 C          24.6753   -0.7182   -7.2077 C.2       4 UNK         0.4946 
     21 O          25.0127   -0.4093   -8.3505 O.2       4 UNK        -0.5353 
     22 CA         23.5150    0.0367   -6.5366 C.3       4 UNK         0.0277 
     23 CB         22.1990   -0.7416   -6.6934 C.3       4 UNK        -0.1981 
     24 N          23.7638    0.3061   -5.1179 N.am      4 UNK        -0.4209 
     25 C          24.7410    1.1030   -4.6606 C.2       3 UNK         0.4942 
     26 O          25.4828    1.7580   -5.3912 O.2       3 UNK        -0.5208 
     27 CA         24.9600    1.1415   -3.1379 C.3       3 UNK         0.0250 
     28 CB         24.1590    2.2917   -2.5082 C.3       3 UNK        -0.1990 
     29 N          24.6280   -0.1177   -2.4603 N.am      3 UNK        -0.4232 
     30 C          25.2494   -1.2857   -2.6748 C.2       2 UNK         0.4993 
     31 O          26.1614   -1.4349   -3.4921 O.2       2 UNK        -0.5286 
     32 CA         24.7228   -2.5025   -1.8961 C.3       2 UNK         0.0209 
     33 CB         24.1500   -3.5528   -2.8624 C.3       2 UNK        -0.1931 
     34 N          25.7558   -3.1283   -1.0694 N.am      2 UNK        -0.4546 
     35 C          26.3405   -2.5738    0.0004 C.2       1 UNK         0.5154 
     36 O          26.0639   -1.4474    0.4156 O.2       1 UNK        -0.5181 
     37 C          27.7060   -1.4298   -6.9286 C.2       5 UNK         0.5014 
     38 O          28.4472   -1.4508   -7.9104 O.2       5 UNK        -0.5248 
     39 N          27.8517   -0.5757   -5.9031 N.am      6 UNK        -0.4434 
     40 CA         28.8952    0.4532   -5.8402 C.3       6 UNK         0.0363 
     41 CB         28.8171    1.2106   -4.5063 C.3       6 UNK        -0.1936 
     42 C          28.8367    1.4371   -7.0210 C.2       6 UNK         0.5081 
     43 O          29.8704    1.7257   -7.6253 O.2       6 UNK        -0.5248 
     44 N          27.6218    1.8968   -7.3522 N.am      7 UNK        -0.4718 
     45 CA         27.3357    2.7529   -8.5038 C.3       7 UNK         0.0273 
     46 CB         25.8789    3.2374   -8.4349 C.3       7 UNK        -0.1935 
     47 C          27.6195    2.0663   -9.8503 C.2       7 UNK         0.5018 
     48 O          28.1930    2.7028  -10.7344 O.2       7 UNK        -0.5186 
     49 N          27.2344    0.7874   -9.9795 N.am      8 UNK        -0.4240 
     50 CA         27.4896   -0.0369  -11.1648 C.3       8 UNK         0.0235 
     51 CB         26.6760   -1.3384  -11.0827 C.3       8 UNK        -0.2000 
     52 C          28.9832   -0.3399  -11.3717 C.2       8 UNK         0.4941 
     53 O          29.4639   -0.2563  -12.5027 O.2       8 UNK        -0.5273 
     54 N          29.6900   -0.6727  -10.2824 N.am      9 UNK        -0.4262 
     55 CA         31.1344   -0.9135  -10.2645 C.3       9 UNK         0.0264 
     56 CB         31.5228   -1.5765   -8.9316 C.3       9 UNK        -0.1955 
     57 C          31.9626    0.3639  -10.4820 C.2       9 UNK         0.5031 
     58 O          33.0616    0.2750  -11.0314 O.2       9 UNK        -0.5390 
     59 N          31.4324    1.5112  -10.0291 N.am      10 UNK        -0.4204 
     60 CA         32.0586    2.8389  -10.0030 C.3       10 UNK         0.0237 
     61 CB         32.3089    3.3693  -11.4307 C.3       10 UNK        -0.1985 
     62 C          33.3133    2.8748   -9.1074 C.2       10 UNK         0.4970 
     63 O          34.2758    3.5806   -9.4141 O.2       10 UNK        -0.4914 
     64 N          33.2753    2.0988   -8.0177 N.am      11 UNK        -0.4285 
     65 CA         34.3601    1.9394   -7.0392 C.3       11 UNK         0.1007 
     66 C          34.4887    3.1002   -6.0093 C.2       11 UNK         0.5703 
     67 N          33.5585    4.0464   -5.9508 N.am      11 UNK        -0.7361 
     68 O          35.4627    3.1523   -5.2618 O.2       11 UNK        -0.4986 
     69 C69        34.2968    0.5441   -6.3604 C.3       12 UNK        -0.0947 
     70 S70        32.6909    0.2052   -5.5673 S.3       12 UNK        -0.2240 
     71 C71        32.8523   -1.5650   -5.1741 C.3       12 UNK         0.0194 
     72 H72        26.5180   -7.8541    1.0712 H         1 UNK         0.0906 
     73 H73        25.8296   -6.8047    2.3116 H         1 UNK         0.0906 
     74 H74        24.8934   -7.1941    0.8670 H         1 UNK         0.0906 
     75 H75        26.6324   -4.7376    2.2321 H         1 UNK         0.3140 
     76 H76        27.6052   -2.8805    1.6777 H         1 UNK         0.1085 
     77 H77        29.3124   -4.3689    0.5040 H         1 UNK         0.0836 
     78 H78        28.5480   -4.0171   -1.0012 H         1 UNK         0.0836 
     79 H79        28.1583   -1.3074   -1.7210 H         1 UNK         0.0731 
     80 H80        29.5619   -0.2939   -1.6101 H         1 UNK         0.0731 
     81 H81        31.5437   -0.7095   -2.9469 H         1 UNK         0.1312 
     82 H82        31.3389   -3.6873   -6.0295 H         1 UNK         0.1406 
     83 H83        28.2543   -3.4516   -3.0675 H         1 UNK         0.1631 
     84 H84        29.8617   -5.7057   -5.3948 H         1 UNK         0.0717 
     85 H85        28.4444   -5.4454   -4.4180 H         1 UNK         0.0717 
     86 H86        25.8393   -4.2727   -6.0592 H         1 UNK         0.0934 
     87 H87        26.9035   -3.3902   -5.0076 H         1 UNK         0.0934 
     88 H88        26.3197   -2.7052   -7.9244 H         1 UNK         0.0739 
     89 H89        24.9973   -1.7988   -5.5185 H         1 UNK         0.3093 
     90 H90        23.4080    0.9968   -7.0463 H         1 UNK         0.0818 
     91 H91        21.3551   -0.1784   -6.2948 H         1 UNK         0.0819 
     92 H92        21.9866   -0.9374   -7.7455 H         1 UNK         0.0819 
     93 H93        22.2319   -1.7051   -6.1832 H         1 UNK         0.0819 
     94 H94        23.1831   -0.1756   -4.4473 H         1 UNK         0.3041 
     95 H95        26.0215    1.3332   -2.9681 H         1 UNK         0.0784 
     96 H96        24.4076    3.2435   -2.9803 H         1 UNK         0.0793 
     97 H97        23.0837    2.1449   -2.6175 H         1 UNK         0.0793 
     98 H98        24.3789    2.3934   -1.4452 H         1 UNK         0.0793 
     99 H99        23.8938   -0.0748   -1.7678 H         1 UNK         0.3024 
    100 H100       23.9191   -2.1776   -1.2316 H         1 UNK         0.1171 
    101 H101       23.6987   -4.3837   -2.3196 H         1 UNK         0.0786 
    102 H102       23.3741   -3.1234   -3.4976 H         1 UNK         0.0786 
    103 H103       24.9203   -3.9634   -3.5160 H         1 UNK         0.0786 
    104 H104       26.0221   -4.0828   -1.2958 H         1 UNK         0.2977 
    105 H105       27.2242   -0.6540   -5.1098 H         1 UNK         0.3127 
    106 H106       29.8496   -0.0714   -5.8857 H         1 UNK         0.0770 
    107 H107       27.9606    1.8830   -4.4659 H         1 UNK         0.0814 
    108 H108       29.7121    1.8157   -4.3570 H         1 UNK         0.0814 
    109 H109       28.7395    0.5277   -3.6642 H         1 UNK         0.0814 
    110 H110       26.8344    1.6538   -6.7554 H         1 UNK         0.2983 
    111 H111       27.9893    3.6253   -8.4358 H         1 UNK         0.0947 
    112 H112       25.6465    3.8987   -9.2706 H         1 UNK         0.0806 
    113 H113       25.6901    3.7945   -7.5170 H         1 UNK         0.0806 
    114 H114       25.1747    2.4053   -8.4696 H         1 UNK         0.0806 
    115 H115       26.7208    0.3509   -9.2202 H         1 UNK         0.3000 
    116 H116       27.1435    0.5221  -12.0369 H         1 UNK         0.0850 
    117 H117       26.8333   -1.9540  -11.9693 H         1 UNK         0.0810 
    118 H118       25.6073   -1.1338  -11.0150 H         1 UNK         0.0810 
    119 H119       26.9569   -1.9365  -10.2156 H         1 UNK         0.0810 
    120 H120       29.1979   -0.7969   -9.3964 H         1 UNK         0.3040 
    121 H121       31.3729   -1.6057  -11.0747 H         1 UNK         0.0766 
    122 H122       31.0143   -2.5320   -8.8009 H         1 UNK         0.0812 
    123 H123       31.2645   -0.9466   -8.0792 H         1 UNK         0.0812 
    124 H124       32.5955   -1.7684   -8.8838 H         1 UNK         0.0812 
    125 H125       30.5595    1.4479   -9.5133 H         1 UNK         0.3205 
    126 H126       31.3319    3.5012   -9.5301 H         1 UNK         0.0754 
    127 H127       32.6375    4.4091  -11.4091 H         1 UNK         0.0769 
    128 H128       31.3994    3.3297  -12.0305 H         1 UNK         0.0769 
    129 H129       33.0785    2.7964  -11.9487 H         1 UNK         0.0769 
    130 H130       32.4261    1.5895   -7.8139 H         1 UNK         0.2981 
    131 H131       35.2966    1.9627   -7.5995 H         1 UNK         0.0541 
    132 H132       32.7542    4.0079   -6.5553 H         1 UNK         0.3459 
    133 H133       33.6574    4.7962   -5.2850 H         1 UNK         0.3459 
    134 H134       35.0915    0.4283   -5.6212 H         1 UNK         0.0612 
    135 H135       34.4723   -0.2277   -7.1115 H         1 UNK         0.0612 
    136 H136       33.6755   -1.7057   -4.4726 H         1 UNK         0.0624 
    137 H137       33.1144   -2.1072   -6.0840 H         1 UNK         0.0624 
@<TRIPOS>BOND
     1    1    2 1    
     2    1   72 1    
     3    1   73 1    
     4    1   74 1    
     5    2    3 2    
     6    2    4 am   BACKBONE|DICT|INTERRES
     7    4    5 1    
     8    4   75 1    
     9    5    6 1    
    10    5   35 1    
    11    5   76 1    
    12    6    7 1    
    13    6   77 1    
    14    6   78 1    
    15    7    8 1    
    16    8    9 1    
    17    8   79 1    
    18    8   80 1    
    19    9   10 ar   
    20    9   14 ar   
    21   10   11 ar   
    22   10   81 1    
    23   11   12 ar   
    24   11   71 1    
    25   12   13 ar   
    26   12   82 1    
    27   13   14 ar   
    28   13   15 1    
    29   14   83 1    
    30   15   16 1    
    31   15   84 1    
    32   15   85 1    
    33   16   17 1    
    34   17   18 1    
    35   17   86 1    
    36   17   87 1    
    37   18   19 1    
    38   18   37 1    
    39   18   88 1    
    40   19   20 am   BACKBONE|DICT|INTERRES
    41   19   89 1    
    42   20   21 2    
    43   20   22 1    
    44   22   23 1    
    45   22   24 1    
    46   22   90 1    
    47   23   91 1    
    48   23   92 1    
    49   23   93 1    
    50   24   25 am   BACKBONE|DICT|INTERRES
    51   24   94 1    
    52   25   26 2    
    53   25   27 1    
    54   27   28 1    
    55   27   29 1    
    56   27   95 1    
    57   28   96 1    
    58   28   97 1    
    59   28   98 1    
    60   29   30 am   BACKBONE|DICT|INTERRES
    61   29   99 1    
    62   30   31 2    
    63   30   32 1    
    64   32   33 1    
    65   32   34 1    
    66   32  100 1    
    67   33  101 1    
    68   33  102 1    
    69   33  103 1    
    70   34   35 am   BACKBONE|DICT|INTERRES
    71   34  104 1    
    72   35   36 2    
    73   37   38 2    
    74   37   39 am   BACKBONE|DICT|INTERRES
    75   39   40 1    
    76   39  105 1    
    77   40   41 1    
    78   40   42 1    
    79   40  106 1    
    80   41  107 1    
    81   41  108 1    
    82   41  109 1    
    83   42   43 2    
    84   42   44 am   BACKBONE|DICT|INTERRES
    85   44   45 1    
    86   44  110 1    
    87   45   46 1    
    88   45   47 1    
    89   45  111 1    
    90   46  112 1    
    91   46  113 1    
    92   46  114 1    
    93   47   48 2    
    94   47   49 am   BACKBONE|DICT|INTERRES
    95   49   50 1    
    96   49  115 1    
    97   50   51 1    
    98   50   52 1    
    99   50  116 1    
   100   51  117 1    
   101   51  118 1    
   102   51  119 1    
   103   52   53 2    
   104   52   54 am   BACKBONE|DICT|INTERRES
   105   54   55 1    
   106   54  120 1    
   107   55   56 1    
   108   55   57 1    
   109   55  121 1    
   110   56  122 1    
   111   56  123 1    
   112   56  124 1    
   113   57   58 2    
   114   57   59 am   BACKBONE|DICT|INTERRES
   115   59   60 1    
   116   59  125 1    
   117   60   61 1    
   118   60   62 1    
   119   60  126 1    
   120   61  127 1    
   121   61  128 1    
   122   61  129 1    
   123   62   63 2    
   124   62   64 am   BACKBONE|DICT|INTERRES
   125   64   65 1    
   126   64  130 1    
   127   65   66 1    
   128   65   69 1    
   129   65  131 1    
   130   66   67 am   BACKBONE|DICT|INTERRES
   131   66   68 2    
   132   67  132 1    
   133   67  133 1    
   134   69   70 1    
   135   69  134 1    
   136   69  135 1    
   137   70   71 1    
   138   71  136 1    
   139   71  137 1    
@<TRIPOS>SUBSTRUCTURE
     1 UNK         1 GROUP             0       ****    0 ROOT    
