@<TRIPOS>MOLECULE
3R137
137   139    1
SMALL
USER_CHARGES


@<TRIPOS>ATOM
      1 CA         28.1096    0.6637   -1.1211 C.3       0 UNK        -0.2020 
      2 C          27.6559   -0.6597   -1.7154 C.2       0 UNK         0.4855 
      3 O          27.1953   -0.6964   -2.8570 O.2       0 UNK        -0.5197 
      4 N          27.7850   -1.7441   -0.9393 N.am      1 UNK        -0.4892 
      5 CA         27.3886   -3.1046   -1.3268 C.3       1 UNK         0.0835 
      6 C6         28.0512   -4.1979   -0.4450 C.3       12 UNK        -0.0855 
      7 S7         29.8475   -3.9988   -0.1876 S.3       12 UNK        -0.2931 
      8 C8         30.5547   -4.9934   -1.5407 C.3       12 UNK         0.0378 
      9 C9         30.5940   -4.2145   -2.8471 C.ar      12 UNK        -0.0802 
     10 C10        31.4035   -3.0789   -2.9517 C.ar      12 UNK        -0.0944 
     11 C11        31.4522   -2.3374   -4.1346 C.ar      12 UNK        -0.0787 
     12 C12        30.6730   -2.7501   -5.2213 C.ar      12 UNK        -0.0862 
     13 C13        29.8723   -3.8941   -5.1408 C.ar      12 UNK        -0.0733 
     14 C14        29.8387   -4.6259   -3.9495 C.ar      12 UNK        -0.0832 
     15 C15        29.0614   -4.3381   -6.3536 C.3       12 UNK         0.0240 
     16 S16        27.2641   -4.4349   -6.0523 S.3       12 UNK        -0.2522 
     17 C17        26.8692   -2.8100   -5.3282 C.3       12 UNK        -0.0967 
     18 CA         26.6724   -1.6816   -6.3766 C.3       5 UNK         0.0660 
     19 N          25.5570   -0.7991   -6.0209 N.am      5 UNK        -0.4015 
     20 C          25.0958    0.2394   -6.7349 C.2       4 UNK         0.4946 
     21 O          25.6089    0.6121   -7.7905 O.2       4 UNK        -0.5353 
     22 CA         23.8544    0.9853   -6.1939 C.3       4 UNK         0.0277 
     23 CB         22.9741    1.5285   -7.3349 C.3       4 UNK        -0.1981 
     24 N          23.0298    0.1493   -5.3127 N.am      4 UNK        -0.4209 
     25 C          23.2876   -0.0857   -4.0206 C.2       3 UNK         0.4942 
     26 O          24.1936    0.4767   -3.4016 O.2       3 UNK        -0.5208 
     27 CA         22.4635   -1.1835   -3.3312 C.3       3 UNK         0.0250 
     28 CB         22.2136   -2.3999   -4.2553 C.3       3 UNK        -0.1990 
     29 N          23.2036   -1.5904   -2.1403 N.am      3 UNK        -0.4232 
     30 C          22.7684   -2.3671   -1.1446 C.2       2 UNK         0.4993 
     31 O          21.6271   -2.8298   -1.0911 O.2       2 UNK        -0.5286 
     32 CA         23.7670   -2.6600   -0.0059 C.3       2 UNK         0.0209 
     33 CB         23.4919   -4.0155    0.6811 C.3       2 UNK        -0.1931 
     34 N          25.1868   -2.5587   -0.3847 N.am      2 UNK        -0.4546 
     35 C          25.8563   -3.2933   -1.2906 C.2       1 UNK         0.5154 
     36 O          25.3297   -4.1117   -2.0443 O.2       1 UNK        -0.5181 
     37 C          27.9741   -0.8916   -6.5986 C.2       5 UNK         0.5014 
     38 O          28.6321   -1.0768   -7.6225 O.2       5 UNK        -0.5248 
     39 N          28.2908    0.0085   -5.6558 N.am      6 UNK        -0.4434 
     40 CA         29.4508    0.8996   -5.7151 C.3       6 UNK         0.0363 
     41 CB         29.5509    1.7053   -4.4124 C.3       6 UNK        -0.1936 
     42 C          29.4624    1.8387   -6.9305 C.2       6 UNK         0.5081 
     43 O          30.5361    2.1023   -7.4718 O.2       6 UNK        -0.5248 
     44 N          28.2798    2.3082   -7.3487 N.am      7 UNK        -0.4718 
     45 CA         28.1047    3.1338   -8.5434 C.3       7 UNK         0.0273 
     46 CB         26.7630    3.8809   -8.4703 C.3       7 UNK        -0.1935 
     47 C          28.2027    2.2978   -9.8280 C.2       7 UNK         0.5018 
     48 O          28.8695    2.7229  -10.7708 O.2       7 UNK        -0.5186 
     49 N          27.5609    1.1202   -9.8319 N.am      8 UNK        -0.4240 
     50 CA         27.5511    0.1696  -10.9466 C.3       8 UNK         0.0235 
     51 CB         26.5490   -0.9585  -10.6516 C.3       8 UNK        -0.2000 
     52 C          28.9415   -0.4046  -11.2650 C.2       8 UNK         0.4941 
     53 O          29.3192   -0.4567  -12.4362 O.2       8 UNK        -0.5273 
     54 N          29.6823   -0.8072  -10.2236 N.am      9 UNK        -0.4262 
     55 CA         31.0529   -1.3155  -10.3332 C.3       9 UNK         0.0264 
     56 CB         31.3704   -2.1696   -9.0977 C.3       9 UNK        -0.1955 
     57 C          32.1063   -0.2042  -10.4871 C.2       9 UNK         0.5031 
     58 O          33.2319   -0.5109  -10.8829 O.2       9 UNK        -0.5390 
     59 N          31.7346    1.0435  -10.1612 N.am      10 UNK        -0.4204 
     60 CA         32.5719    2.2467  -10.1214 C.3       10 UNK         0.0237 
     61 CB         33.0528    2.6377  -11.5354 C.3       10 UNK        -0.1985 
     62 C          33.7163    2.1103   -9.0991 C.2       10 UNK         0.4970 
     63 O          34.8888    2.2465   -9.4551 O.2       10 UNK        -0.4914 
     64 N          33.3443    1.8323   -7.8428 N.am      11 UNK        -0.4285 
     65 CA         34.2693    1.7004   -6.7038 C.3       11 UNK         0.1007 
     66 C          34.9466    3.0332   -6.2667 C.2       11 UNK         0.5703 
     67 N          34.4370    4.1983   -6.6506 N.am      11 UNK        -0.7361 
     68 O          35.9576    3.0069   -5.5688 O.2       11 UNK        -0.4986 
     69 C69        33.5982    1.0165   -5.4836 C.3       12 UNK        -0.0947 
     70 S70        33.0228   -0.6802   -5.8155 S.3       12 UNK        -0.2240 
     71 C71        32.3087   -1.0722   -4.1805 C.3       12 UNK         0.0194 
     72 H72        29.1913    0.7650   -1.2024 H         1 UNK         0.0906 
     73 H73        27.6455    1.4976   -1.6476 H         1 UNK         0.0906 
     74 H74        27.8350    0.7368   -0.0691 H         1 UNK         0.0906 
     75 H75        28.2207   -1.6601   -0.0313 H         1 UNK         0.3140 
     76 H76        27.7127   -3.2663   -2.3562 H         1 UNK         0.1085 
     77 H77        27.5980   -4.2078    0.5487 H         1 UNK         0.0836 
     78 H78        27.8590   -5.1876   -0.8642 H         1 UNK         0.0836 
     79 H79        31.5738   -5.2742   -1.2709 H         1 UNK         0.0731 
     80 H80        30.0010   -5.9273   -1.6485 H         1 UNK         0.0731 
     81 H81        31.9850   -2.7632   -2.0960 H         1 UNK         0.1312 
     82 H82        30.6837   -2.1770   -6.1352 H         1 UNK         0.1406 
     83 H83        29.2174   -5.5090   -3.8830 H         1 UNK         0.1631 
     84 H84        29.4143   -5.3201   -6.6710 H         1 UNK         0.0717 
     85 H85        29.2311   -3.6713   -7.1988 H         1 UNK         0.0717 
     86 H86        27.6166   -2.5510   -4.5785 H         1 UNK         0.0934 
     87 H87        25.9504   -2.9616   -4.7590 H         1 UNK         0.0934 
     88 H88        26.3994   -2.1311   -7.3335 H         1 UNK         0.0739 
     89 H89        25.1211   -0.9750   -5.1283 H         1 UNK         0.3093 
     90 H90        24.2252    1.8406   -5.6250 H         1 UNK         0.0818 
     91 H91        22.1088    2.0666   -6.9476 H         1 UNK         0.0819 
     92 H92        23.5290    2.2269   -7.9627 H         1 UNK         0.0819 
     93 H93        22.6120    0.7279   -7.9809 H         1 UNK         0.0819 
     94 H94        22.2825   -0.3661   -5.7562 H         1 UNK         0.3041 
     95 H95        21.5102   -0.7494   -3.0239 H         1 UNK         0.0784 
     96 H96        21.6024   -2.1340   -5.1180 H         1 UNK         0.0793 
     97 H97        23.1484   -2.8226   -4.6262 H         1 UNK         0.0793 
     98 H98        21.6790   -3.1961   -3.7377 H         1 UNK         0.0793 
     99 H99        24.1316   -1.1864   -2.0815 H         1 UNK         0.3024 
    100 H100       23.5950   -1.8787    0.7364 H         1 UNK         0.1171 
    101 H101       24.1866   -4.1934    1.5019 H         1 UNK         0.0786 
    102 H102       23.5785   -4.8474   -0.0187 H         1 UNK         0.0786 
    103 H103       22.4856   -4.0480    1.1007 H         1 UNK         0.0786 
    104 H104       25.7309   -1.8954    0.1498 H         1 UNK         0.2977 
    105 H105       27.7243    0.0429   -4.8143 H         1 UNK         0.3127 
    106 H106       30.3329    0.2681   -5.8005 H         1 UNK         0.0770 
    107 H107       30.4071    2.3809   -4.4331 H         1 UNK         0.0814 
    108 H108       29.6806    1.0472   -3.5550 H         1 UNK         0.0814 
    109 H109       28.6599    2.3103   -4.2411 H         1 UNK         0.0814 
    110 H110       27.4413    1.9948   -6.8808 H         1 UNK         0.2983 
    111 H111       28.9039    3.8785   -8.5697 H         1 UNK         0.0947 
    112 H112       26.6309    4.5263   -9.3398 H         1 UNK         0.0806 
    113 H113       26.7106    4.5157   -7.5858 H         1 UNK         0.0806 
    114 H114       25.9147    3.1967   -8.4428 H         1 UNK         0.0806 
    115 H115       26.9994    0.8729   -9.0191 H         1 UNK         0.3000 
    116 H116       27.2060    0.7073  -11.8322 H         1 UNK         0.0850 
    117 H117       26.4999   -1.6651  -11.4811 H         1 UNK         0.0810 
    118 H118       25.5438   -0.5651  -10.4991 H         1 UNK         0.0810 
    119 H119       26.8250   -1.5202   -9.7587 H         1 UNK         0.0810 
    120 H120       29.2748   -0.7844   -9.2879 H         1 UNK         0.3040 
    121 H121       31.1192   -1.9564  -11.2150 H         1 UNK         0.0766 
    122 H122       32.3686   -2.6043   -9.1643 H         1 UNK         0.0812 
    123 H123       31.3373   -1.5686   -8.1900 H         1 UNK         0.0812 
    124 H124       30.6637   -2.9916   -8.9900 H         1 UNK         0.0812 
    125 H125       30.7883    1.1706   -9.8285 H         1 UNK         0.3205 
    126 H126       31.9300    3.0526   -9.7619 H         1 UNK         0.0754 
    127 H127       33.5894    3.5870  -11.5146 H         1 UNK         0.0769 
    128 H128       32.2118    2.7553  -12.2189 H         1 UNK         0.0769 
    129 H129       33.7277    1.8934  -11.9591 H         1 UNK         0.0769 
    130 H130       32.3501    1.7797   -7.6312 H         1 UNK         0.2981 
    131 H131       35.0828    1.0505   -7.0317 H         1 UNK         0.0541 
    132 H132       33.6038    4.2304   -7.2152 H         1 UNK         0.3459 
    133 H133       34.8877    5.0528   -6.3640 H         1 UNK         0.3459 
    134 H134       32.7496    1.6115   -5.1416 H         1 UNK         0.0612 
    135 H135       34.2945    0.9618   -4.6443 H         1 UNK         0.0612 
    136 H136       33.1324   -1.1549   -3.4697 H         1 UNK         0.0624 
    137 H137       31.6967   -0.2366   -3.8431 H         1 UNK         0.0624 
@<TRIPOS>BOND
     1    1    2 1    
     2    1   72 1    
     3    1   73 1    
     4    1   74 1    
     5    2    3 2    
     6    2    4 am   BACKBONE|DICT|INTERRES
     7    4    5 1    
     8    4   75 1    
     9    5    6 1    
    10    5   35 1    
    11    5   76 1    
    12    6    7 1    
    13    6   77 1    
    14    6   78 1    
    15    7    8 1    
    16    8    9 1    
    17    8   79 1    
    18    8   80 1    
    19    9   10 ar   
    20    9   14 ar   
    21   10   11 ar   
    22   10   81 1    
    23   11   12 ar   
    24   11   71 1    
    25   12   13 ar   
    26   12   82 1    
    27   13   14 ar   
    28   13   15 1    
    29   14   83 1    
    30   15   16 1    
    31   15   84 1    
    32   15   85 1    
    33   16   17 1    
    34   17   18 1    
    35   17   86 1    
    36   17   87 1    
    37   18   19 1    
    38   18   37 1    
    39   18   88 1    
    40   19   20 am   BACKBONE|DICT|INTERRES
    41   19   89 1    
    42   20   21 2    
    43   20   22 1    
    44   22   23 1    
    45   22   24 1    
    46   22   90 1    
    47   23   91 1    
    48   23   92 1    
    49   23   93 1    
    50   24   25 am   BACKBONE|DICT|INTERRES
    51   24   94 1    
    52   25   26 2    
    53   25   27 1    
    54   27   28 1    
    55   27   29 1    
    56   27   95 1    
    57   28   96 1    
    58   28   97 1    
    59   28   98 1    
    60   29   30 am   BACKBONE|DICT|INTERRES
    61   29   99 1    
    62   30   31 2    
    63   30   32 1    
    64   32   33 1    
    65   32   34 1    
    66   32  100 1    
    67   33  101 1    
    68   33  102 1    
    69   33  103 1    
    70   34   35 am   BACKBONE|DICT|INTERRES
    71   34  104 1    
    72   35   36 2    
    73   37   38 2    
    74   37   39 am   BACKBONE|DICT|INTERRES
    75   39   40 1    
    76   39  105 1    
    77   40   41 1    
    78   40   42 1    
    79   40  106 1    
    80   41  107 1    
    81   41  108 1    
    82   41  109 1    
    83   42   43 2    
    84   42   44 am   BACKBONE|DICT|INTERRES
    85   44   45 1    
    86   44  110 1    
    87   45   46 1    
    88   45   47 1    
    89   45  111 1    
    90   46  112 1    
    91   46  113 1    
    92   46  114 1    
    93   47   48 2    
    94   47   49 am   BACKBONE|DICT|INTERRES
    95   49   50 1    
    96   49  115 1    
    97   50   51 1    
    98   50   52 1    
    99   50  116 1    
   100   51  117 1    
   101   51  118 1    
   102   51  119 1    
   103   52   53 2    
   104   52   54 am   BACKBONE|DICT|INTERRES
   105   54   55 1    
   106   54  120 1    
   107   55   56 1    
   108   55   57 1    
   109   55  121 1    
   110   56  122 1    
   111   56  123 1    
   112   56  124 1    
   113   57   58 2    
   114   57   59 am   BACKBONE|DICT|INTERRES
   115   59   60 1    
   116   59  125 1    
   117   60   61 1    
   118   60   62 1    
   119   60  126 1    
   120   61  127 1    
   121   61  128 1    
   122   61  129 1    
   123   62   63 2    
   124   62   64 am   BACKBONE|DICT|INTERRES
   125   64   65 1    
   126   64  130 1    
   127   65   66 1    
   128   65   69 1    
   129   65  131 1    
   130   66   67 am   BACKBONE|DICT|INTERRES
   131   66   68 2    
   132   67  132 1    
   133   67  133 1    
   134   69   70 1    
   135   69  134 1    
   136   69  135 1    
   137   70   71 1    
   138   71  136 1    
   139   71  137 1    
@<TRIPOS>SUBSTRUCTURE
     1 UNK         1 GROUP             0       ****    0 ROOT    
