@<TRIPOS>MOLECULE
3R137
137   139    1
SMALL
USER_CHARGES


@<TRIPOS>ATOM
      1 CA         25.6878   -6.5756   -5.7270 C.3       0 UNK        -0.2020 
      2 C          25.8741   -6.3624   -4.2323 C.2       0 UNK         0.4855 
      3 O          25.1787   -6.9887   -3.4329 O.2       0 UNK        -0.5197 
      4 N          26.8086   -5.4816   -3.8505 N.am      1 UNK        -0.4892 
      5 CA         27.1620   -5.1666   -2.4576 C.3       1 UNK         0.0835 
      6 C6         28.4641   -4.3315   -2.3664 C.3       12 UNK        -0.0855 
      7 S7         29.8702   -5.0187   -3.3107 S.3       12 UNK        -0.2931 
      8 C8         31.3002   -4.2949   -2.4372 C.3       12 UNK         0.0378 
      9 C9         31.3539   -2.7786   -2.5781 C.ar      12 UNK        -0.0802 
     10 C10        32.1212   -2.1763   -3.5812 C.ar      12 UNK        -0.0944 
     11 C11        32.1621   -0.7820   -3.7010 C.ar      12 UNK        -0.0787 
     12 C12        31.4026    0.0097   -2.8330 C.ar      12 UNK        -0.0862 
     13 C13        30.6318   -0.5837   -1.8302 C.ar      12 UNK        -0.0733 
     14 C14        30.6370   -1.9725   -1.6910 C.ar      12 UNK        -0.0832 
     15 C15        29.7817    0.2539   -0.8899 C.3       12 UNK         0.0240 
     16 S16        28.0116    0.0129   -1.2448 S.3       12 UNK        -0.2522 
     17 C17        27.5908    1.5265   -2.1671 C.3       12 UNK        -0.0967 
     18 CA         27.8634    1.4488   -3.6908 C.3       5 UNK         0.0660 
     19 N          27.1808    0.3236   -4.3398 N.am      5 UNK        -0.4015 
     20 C          27.3758   -0.0482   -5.6163 C.2       4 UNK         0.4946 
     21 O          28.1736    0.4950   -6.3792 O.2       4 UNK        -0.5353 
     22 CA         26.5080   -1.1914   -6.1705 C.3       4 UNK         0.0277 
     23 CB         27.1976   -2.5389   -5.9032 C.3       4 UNK        -0.1981 
     24 N          25.1456   -1.2376   -5.6365 N.am      4 UNK        -0.4209 
     25 C          24.2765   -0.2202   -5.5419 C.2       3 UNK         0.4942 
     26 O          24.4752    0.9010   -6.0109 O.2       3 UNK        -0.5208 
     27 CA         23.0014   -0.4802   -4.7157 C.3       3 UNK         0.0250 
     28 CB         21.8120   -0.7650   -5.6458 C.3       3 UNK        -0.1990 
     29 N          23.1274   -1.5702   -3.7332 N.am      3 UNK        -0.4232 
     30 C          24.0387   -1.6313   -2.7484 C.2       2 UNK         0.4993 
     31 O          24.8860   -0.7591   -2.5530 O.2       2 UNK        -0.5286 
     32 CA         24.0766   -2.9078   -1.8995 C.3       2 UNK         0.0209 
     33 CB         22.7560   -3.7058   -1.8876 C.3       2 UNK        -0.1931 
     34 N          25.1556   -3.7450   -2.4184 N.am      2 UNK        -0.4546 
     35 C          26.0345   -4.4397   -1.6863 C.2       1 UNK         0.5154 
     36 O          25.9979   -4.5089   -0.4568 O.2       1 UNK        -0.5181 
     37 C          27.4998    2.8028   -4.3352 C.2       5 UNK         0.5014 
     38 O          28.3719    3.6620   -4.4686 O.2       5 UNK        -0.5248 
     39 N          26.2220    2.9745   -4.7042 N.am      6 UNK        -0.4434 
     40 CA         25.6979    4.1886   -5.3309 C.3       6 UNK         0.0363 
     41 CB         24.1944    4.3118   -5.0339 C.3       6 UNK        -0.1936 
     42 C          25.9542    4.1962   -6.8439 C.2       6 UNK         0.5081 
     43 O          26.2875    5.2439   -7.3978 O.2       6 UNK        -0.5248 
     44 N          25.8040    3.0278   -7.4825 N.am      7 UNK        -0.4718 
     45 CA         26.0408    2.8251   -8.9139 C.3       7 UNK         0.0273 
     46 CB         25.4071    1.4894   -9.3358 C.3       7 UNK        -0.1935 
     47 C          27.5293    2.8561   -9.3075 C.2       7 UNK         0.5018 
     48 O          27.8261    3.0765  -10.4822 O.2       7 UNK        -0.5186 
     49 N          28.4215    2.6058   -8.3359 N.am      8 UNK        -0.4240 
     50 CA         29.8695    2.4050   -8.4756 C.3       8 UNK         0.0235 
     51 CB         30.5695    3.6892   -8.9706 C.3       8 UNK        -0.2000 
     52 C          30.1933    1.1636   -9.3309 C.2       8 UNK         0.4941 
     53 O          31.1314    1.1890  -10.1317 O.2       8 UNK        -0.5273 
     54 N          29.3895    0.1036   -9.1588 N.am      9 UNK        -0.4262 
     55 CA         29.4104   -1.1207   -9.9603 C.3       9 UNK         0.0264 
     56 CB         28.1727   -1.9719   -9.6314 C.3       9 UNK        -0.1955 
     57 C          30.7157   -1.9053   -9.7561 C.2       9 UNK         0.5031 
     58 O          30.8688   -2.5814   -8.7376 O.2       9 UNK        -0.5390 
     59 N          31.6346   -1.7597  -10.7219 N.am      10 UNK        -0.4204 
     60 CA         33.0086   -2.2783  -10.7353 C.3       10 UNK         0.0237 
     61 CB         33.0244   -3.8227  -10.7395 C.3       10 UNK        -0.1985 
     62 C          33.9109   -1.6741   -9.6375 C.2       10 UNK         0.4970 
     63 O          34.9295   -2.2776   -9.2952 O.2       10 UNK        -0.4914 
     64 N          33.5464   -0.4911   -9.1230 N.am      11 UNK        -0.4285 
     65 CA         34.3142    0.2448   -8.1054 C.3       11 UNK         0.1007 
     66 C          35.5020    1.0692   -8.6820 C.2       11 UNK         0.5703 
     67 N          35.6403    1.2171   -9.9948 N.am      11 UNK        -0.7361 
     68 O          36.3240    1.5745   -7.9212 O.2       11 UNK        -0.4986 
     69 C69        33.3985    1.1283   -7.2192 C.3       12 UNK        -0.0947 
     70 S70        32.1503    0.1650   -6.3008 S.3       12 UNK        -0.2240 
     71 C71        33.0463   -0.1241   -4.7479 C.3       12 UNK         0.0194 
     72 H72        26.4026   -6.0002   -6.3151 H         1 UNK         0.0906 
     73 H73        25.8187   -7.6289   -5.9740 H         1 UNK         0.0906 
     74 H74        24.6831   -6.2782   -6.0263 H         1 UNK         0.0906 
     75 H75        27.3992   -5.0508   -4.5478 H         1 UNK         0.3140 
     76 H76        27.3328   -6.1161   -1.9451 H         1 UNK         0.1085 
     77 H77        28.7607   -4.2546   -1.3190 H         1 UNK         0.0836 
     78 H78        28.2951   -3.3103   -2.7148 H         1 UNK         0.0836 
     79 H79        32.2143   -4.7373   -2.8361 H         1 UNK         0.0731 
     80 H80        31.2647   -4.5755   -1.3833 H         1 UNK         0.0731 
     81 H81        32.6919   -2.7908   -4.2642 H         1 UNK         0.1312 
     82 H82        31.4169    1.0861   -2.9373 H         1 UNK         0.1406 
     83 H83        30.0520   -2.4232   -0.9020 H         1 UNK         0.1631 
     84 H84        30.0508    1.3093   -0.9495 H         1 UNK         0.0717 
     85 H85        29.9782   -0.0522    0.1386 H         1 UNK         0.0717 
     86 H86        26.5315    1.7215   -1.9858 H         1 UNK         0.0934 
     87 H87        28.1246    2.3681   -1.7208 H         1 UNK         0.0934 
     88 H88        28.9350    1.2997   -3.8377 H         1 UNK         0.0739 
     89 H89        26.4972   -0.1680   -3.7728 H         1 UNK         0.3093 
     90 H90        26.4271   -1.0496   -7.2488 H         1 UNK         0.0818 
     91 H91        26.6896   -3.3556   -6.4161 H         1 UNK         0.0819 
     92 H92        28.2318   -2.5298   -6.2519 H         1 UNK         0.0819 
     93 H93        27.2254   -2.7653   -4.8378 H         1 UNK         0.0819 
     94 H94        24.8511   -2.1181   -5.2463 H         1 UNK         0.3041 
     95 H95        22.7910    0.4360   -4.1601 H         1 UNK         0.0784 
     96 H96        21.6815    0.0408   -6.3699 H         1 UNK         0.0793 
     97 H97        21.9502   -1.6892   -6.2084 H         1 UNK         0.0793 
     98 H98        20.8801   -0.8472   -5.0860 H         1 UNK         0.0793 
     99 H99        22.4706   -2.3326   -3.8214 H         1 UNK         0.3024 
    100 H100       24.3036   -2.5937   -0.8777 H         1 UNK         0.1171 
    101 H101       22.8118   -4.5312   -1.1773 H         1 UNK         0.0786 
    102 H102       21.9172   -3.0788   -1.5815 H         1 UNK         0.0786 
    103 H103       22.5202   -4.1342   -2.8624 H         1 UNK         0.0786 
    104 H104       25.2796   -3.7534   -3.4191 H         1 UNK         0.2977 
    105 H105       25.5830    2.1922   -4.6349 H         1 UNK         0.3127 
    106 H106       26.1997    5.0580   -4.9000 H         1 UNK         0.0770 
    107 H107       23.6288    3.4717   -5.4388 H         1 UNK         0.0814 
    108 H108       23.7849    5.2220   -5.4742 H         1 UNK         0.0814 
    109 H109       24.0049    4.3578   -3.9614 H         1 UNK         0.0814 
    110 H110       25.4617    2.2278   -6.9550 H         1 UNK         0.2983 
    111 H111       25.5428    3.6297   -9.4594 H         1 UNK         0.0947 
    112 H112       25.8663    0.6466   -8.8198 H         1 UNK         0.0806 
    113 H113       25.5256    1.3203  -10.4070 H         1 UNK         0.0806 
    114 H114       24.3385    1.4709   -9.1204 H         1 UNK         0.0806 
    115 H115       28.0510    2.3627   -7.4244 H         1 UNK         0.3000 
    116 H116       30.2408    2.1914   -7.4725 H         1 UNK         0.0850 
    117 H117       30.3192    4.5433   -8.3415 H         1 UNK         0.0810 
    118 H118       30.2922    3.9341   -9.9960 H         1 UNK         0.0810 
    119 H119       31.6537    3.5788   -8.9502 H         1 UNK         0.0810 
    120 H120       28.7322    0.1417   -8.3878 H         1 UNK         0.3040 
    121 H121       29.3364   -0.8286  -11.0101 H         1 UNK         0.0766 
    122 H122       28.1423   -2.8673  -10.2533 H         1 UNK         0.0812 
    123 H123       27.2494   -1.4210   -9.8107 H         1 UNK         0.0812 
    124 H124       28.1750   -2.3009   -8.5937 H         1 UNK         0.0812 
    125 H125       31.4061   -1.1360  -11.4851 H         1 UNK         0.3205 
    126 H126       33.4401   -1.9485  -11.6814 H         1 UNK         0.0754 
    127 H127       34.0306   -4.2041  -10.9175 H         1 UNK         0.0769 
    128 H128       32.3848   -4.2243  -11.5255 H         1 UNK         0.0769 
    129 H129       32.6866   -4.2347   -9.7881 H         1 UNK         0.0769 
    130 H130       32.7067   -0.0375   -9.4647 H         1 UNK         0.2981 
    131 H131       34.7750   -0.4903   -7.4429 H         1 UNK         0.0541 
    132 H132       36.4184    1.7488  -10.3521 H         1 UNK         0.3459 
    133 H133       34.9707    0.8128  -10.6289 H         1 UNK         0.3459 
    134 H134       33.9865    1.7055   -6.5034 H         1 UNK         0.0612 
    135 H135       32.8780    1.8619   -7.8344 H         1 UNK         0.0612 
    136 H136       33.4239    0.8245   -4.3631 H         1 UNK         0.0624 
    137 H137       33.9203   -0.7457   -4.9485 H         1 UNK         0.0624 
@<TRIPOS>BOND
     1    1    2 1    
     2    1   72 1    
     3    1   73 1    
     4    1   74 1    
     5    2    3 2    
     6    2    4 am   BACKBONE|DICT|INTERRES
     7    4    5 1    
     8    4   75 1    
     9    5    6 1    
    10    5   35 1    
    11    5   76 1    
    12    6    7 1    
    13    6   77 1    
    14    6   78 1    
    15    7    8 1    
    16    8    9 1    
    17    8   79 1    
    18    8   80 1    
    19    9   10 ar   
    20    9   14 ar   
    21   10   11 ar   
    22   10   81 1    
    23   11   12 ar   
    24   11   71 1    
    25   12   13 ar   
    26   12   82 1    
    27   13   14 ar   
    28   13   15 1    
    29   14   83 1    
    30   15   16 1    
    31   15   84 1    
    32   15   85 1    
    33   16   17 1    
    34   17   18 1    
    35   17   86 1    
    36   17   87 1    
    37   18   19 1    
    38   18   37 1    
    39   18   88 1    
    40   19   20 am   BACKBONE|DICT|INTERRES
    41   19   89 1    
    42   20   21 2    
    43   20   22 1    
    44   22   23 1    
    45   22   24 1    
    46   22   90 1    
    47   23   91 1    
    48   23   92 1    
    49   23   93 1    
    50   24   25 am   BACKBONE|DICT|INTERRES
    51   24   94 1    
    52   25   26 2    
    53   25   27 1    
    54   27   28 1    
    55   27   29 1    
    56   27   95 1    
    57   28   96 1    
    58   28   97 1    
    59   28   98 1    
    60   29   30 am   BACKBONE|DICT|INTERRES
    61   29   99 1    
    62   30   31 2    
    63   30   32 1    
    64   32   33 1    
    65   32   34 1    
    66   32  100 1    
    67   33  101 1    
    68   33  102 1    
    69   33  103 1    
    70   34   35 am   BACKBONE|DICT|INTERRES
    71   34  104 1    
    72   35   36 2    
    73   37   38 2    
    74   37   39 am   BACKBONE|DICT|INTERRES
    75   39   40 1    
    76   39  105 1    
    77   40   41 1    
    78   40   42 1    
    79   40  106 1    
    80   41  107 1    
    81   41  108 1    
    82   41  109 1    
    83   42   43 2    
    84   42   44 am   BACKBONE|DICT|INTERRES
    85   44   45 1    
    86   44  110 1    
    87   45   46 1    
    88   45   47 1    
    89   45  111 1    
    90   46  112 1    
    91   46  113 1    
    92   46  114 1    
    93   47   48 2    
    94   47   49 am   BACKBONE|DICT|INTERRES
    95   49   50 1    
    96   49  115 1    
    97   50   51 1    
    98   50   52 1    
    99   50  116 1    
   100   51  117 1    
   101   51  118 1    
   102   51  119 1    
   103   52   53 2    
   104   52   54 am   BACKBONE|DICT|INTERRES
   105   54   55 1    
   106   54  120 1    
   107   55   56 1    
   108   55   57 1    
   109   55  121 1    
   110   56  122 1    
   111   56  123 1    
   112   56  124 1    
   113   57   58 2    
   114   57   59 am   BACKBONE|DICT|INTERRES
   115   59   60 1    
   116   59  125 1    
   117   60   61 1    
   118   60   62 1    
   119   60  126 1    
   120   61  127 1    
   121   61  128 1    
   122   61  129 1    
   123   62   63 2    
   124   62   64 am   BACKBONE|DICT|INTERRES
   125   64   65 1    
   126   64  130 1    
   127   65   66 1    
   128   65   69 1    
   129   65  131 1    
   130   66   67 am   BACKBONE|DICT|INTERRES
   131   66   68 2    
   132   67  132 1    
   133   67  133 1    
   134   69   70 1    
   135   69  134 1    
   136   69  135 1    
   137   70   71 1    
   138   71  136 1    
   139   71  137 1    
@<TRIPOS>SUBSTRUCTURE
     1 UNK         1 GROUP             0       ****    0 ROOT    
