@<TRIPOS>MOLECULE
3R137
137   139    1
SMALL
USER_CHARGES


@<TRIPOS>ATOM
      1 CA         25.0919    0.5752    3.2766 C.3       0 UNK        -0.2020 
      2 C          25.3028   -0.2575    2.0213 C.2       0 UNK         0.4855 
      3 O          25.1525   -1.4790    2.0677 O.2       0 UNK        -0.5197 
      4 N          25.6379    0.3948    0.8986 N.am      1 UNK        -0.4892 
      5 CA         25.8989   -0.1718   -0.4342 C.3       1 UNK         0.0835 
      6 C6         27.0389   -1.2274   -0.4392 C.3       12 UNK        -0.0855 
      7 S7         27.6875   -1.5365   -2.1127 S.3       12 UNK        -0.2931 
      8 C8         29.4088   -2.0218   -1.7619 C.3       12 UNK         0.0378 
      9 C9         30.1446   -2.3053   -3.0621 C.ar      12 UNK        -0.0802 
     10 C10        31.1736   -1.4686   -3.5082 C.ar      12 UNK        -0.0944 
     11 C11        31.7639   -1.6792   -4.7588 C.ar      12 UNK        -0.0787 
     12 C12        31.3323   -2.7445   -5.5547 C.ar      12 UNK        -0.0862 
     13 C13        30.3214   -3.5971   -5.1069 C.ar      12 UNK        -0.0733 
     14 C14        29.7476   -3.3849   -3.8528 C.ar      12 UNK        -0.0832 
     15 C15        29.8118   -4.7279   -5.9810 C.3       12 UNK         0.0240 
     16 S16        28.1080   -4.4033   -6.5304 S.3       12 UNK        -0.2522 
     17 C17        28.3484   -3.1553   -7.8426 C.3       12 UNK        -0.0967 
     18 CA         27.7379   -1.7496   -7.5768 C.3       5 UNK         0.0660 
     19 N          26.4956   -1.7789   -6.7937 N.am      5 UNK        -0.4015 
     20 C          25.5969   -0.7873   -6.7450 C.2       4 UNK         0.4946 
     21 O          25.7329    0.2596   -7.3793 O.2       4 UNK        -0.5353 
     22 CA         24.3769   -0.9275   -5.8144 C.3       4 UNK         0.0277 
     23 CB         23.0715   -1.0285   -6.6278 C.3       4 UNK        -0.1981 
     24 N          24.4541   -1.9850   -4.7939 N.am      4 UNK        -0.4209 
     25 C          24.4462   -3.3175   -4.9662 C.2       3 UNK         0.4942 
     26 O          24.4612   -3.8595   -6.0706 O.2       3 UNK        -0.5208 
     27 CA         24.4439   -4.2079   -3.7069 C.3       3 UNK         0.0250 
     28 CB         25.8280   -4.8411   -3.4941 C.3       3 UNK        -0.1990 
     29 N          24.0535   -3.5003   -2.4856 N.am      3 UNK        -0.4232 
     30 C          22.8149   -3.0697   -2.2050 C.2       2 UNK         0.4993 
     31 O          21.8333   -3.3098   -2.9086 O.2       2 UNK        -0.5286 
     32 CA         22.6393   -2.2053   -0.9409 C.3       2 UNK         0.0209 
     33 CB         22.0285   -3.0356    0.1996 C.3       2 UNK        -0.1931 
     34 N          23.8733   -1.5714   -0.4597 N.am      2 UNK        -0.4546 
     35 C          24.6229   -0.6897   -1.1346 C.2       1 UNK         0.5154 
     36 O          24.3515   -0.3030   -2.2730 O.2       1 UNK        -0.5181 
     37 C          28.7605   -0.6836   -7.1093 C.2       5 UNK         0.5014 
     38 O          29.6416   -0.3191   -7.8937 O.2       5 UNK        -0.5248 
     39 N          28.5843   -0.1356   -5.8955 N.am      6 UNK        -0.4434 
     40 CA         29.2419    1.0903   -5.4316 C.3       6 UNK         0.0363 
     41 CB         28.9497    1.3200   -3.9396 C.3       6 UNK        -0.1936 
     42 C          28.8008    2.3295   -6.2270 C.2       6 UNK         0.5081 
     43 O          29.6495    3.1211   -6.6338 O.2       6 UNK        -0.5248 
     44 N          27.4853    2.4690   -6.4483 N.am      7 UNK        -0.4718 
     45 CA         26.8801    3.5754   -7.1967 C.3       7 UNK         0.0273 
     46 CB         25.3742    3.6459   -6.8956 C.3       7 UNK        -0.1935 
     47 C          27.1335    3.4605   -8.7073 C.2       7 UNK         0.5018 
     48 O          27.2893    4.4841   -9.3735 O.2       7 UNK        -0.5186 
     49 N          27.2221    2.2197   -9.2089 N.am      8 UNK        -0.4240 
     50 CA         27.6683    1.9057  -10.5708 C.3       8 UNK         0.0235 
     51 CB         27.3051    0.4500  -10.9052 C.3       8 UNK        -0.2000 
     52 C          29.1785    2.1371  -10.7871 C.2       8 UNK         0.4941 
     53 O          29.6117    2.1678  -11.9394 O.2       8 UNK        -0.5273 
     54 N          29.9412    2.2833   -9.6910 N.am      9 UNK        -0.4262 
     55 CA         31.3908    2.4841   -9.6185 C.3       9 UNK         0.0264 
     56 CB         31.7883    3.8511  -10.2152 C.3       9 UNK        -0.1955 
     57 C          32.1769    1.3046  -10.2175 C.2       9 UNK         0.5031 
     58 O          33.0798    1.5123  -11.0308 O.2       9 UNK        -0.5390 
     59 N          31.8156    0.0799   -9.8062 N.am      10 UNK        -0.4204 
     60 CA         32.4652   -1.1576  -10.2532 C.3       10 UNK         0.0237 
     61 CB         31.5868   -2.3568   -9.8694 C.3       10 UNK        -0.1985 
     62 C          33.8920   -1.3400   -9.7005 C.2       10 UNK         0.4970 
     63 O          34.6996   -2.0182  -10.3367 O.2       10 UNK        -0.4914 
     64 N          34.1707   -0.7486   -8.5324 N.am      11 UNK        -0.4285 
     65 CA         35.4878   -0.7393   -7.8824 C.3       11 UNK         0.1007 
     66 C          36.4868    0.1810   -8.6327 C.2       11 UNK         0.5703 
     67 N          37.7188   -0.2668   -8.8330 N.am      11 UNK        -0.7361 
     68 O          36.1662    1.3123   -8.9917 O.2       11 UNK        -0.4986 
     69 C69        35.3797   -0.3304   -6.3901 C.3       12 UNK        -0.0947 
     70 S70        34.4459   -1.5489   -5.4074 S.3       12 UNK        -0.2240 
     71 C71        32.8277   -0.7297   -5.2840 C.3       12 UNK         0.0194 
     72 H72        25.2571    1.6372    3.0962 H         1 UNK         0.0906 
     73 H73        24.0740    0.4477    3.6441 H         1 UNK         0.0906 
     74 H74        25.7790    0.2535    4.0587 H         1 UNK         0.0906 
     75 H75        25.7095    1.4030    0.9396 H         1 UNK         0.3140 
     76 H76        26.2429    0.6759   -1.0302 H         1 UNK         0.1085 
     77 H77        27.8606   -0.8749    0.1862 H         1 UNK         0.0836 
     78 H78        26.7143   -2.1740   -0.0036 H         1 UNK         0.0836 
     79 H79        29.9050   -1.2283   -1.2009 H         1 UNK         0.0731 
     80 H80        29.4189   -2.9119   -1.1311 H         1 UNK         0.0731 
     81 H81        31.4872   -0.6306   -2.9010 H         1 UNK         0.1312 
     82 H82        31.7797   -2.8995   -6.5259 H         1 UNK         0.1406 
     83 H83        28.9512   -4.0324   -3.5136 H         1 UNK         0.1631 
     84 H84        30.4584   -4.8889   -6.8451 H         1 UNK         0.0717 
     85 H85        29.8269   -5.6563   -5.4084 H         1 UNK         0.0717 
     86 H86        27.8795   -3.5710   -8.7360 H         1 UNK         0.0934 
     87 H87        29.4056   -3.0875   -8.0956 H         1 UNK         0.0934 
     88 H88        27.4313   -1.3890   -8.5584 H         1 UNK         0.0739 
     89 H89        26.2943   -2.6423   -6.3049 H         1 UNK         0.3093 
     90 H90        24.3325    0.0054   -5.2500 H         1 UNK         0.0818 
     91 H91        22.1987   -1.0501   -5.9752 H         1 UNK         0.0819 
     92 H92        22.9588   -0.1697   -7.2910 H         1 UNK         0.0819 
     93 H93        23.0473   -1.9223   -7.2518 H         1 UNK         0.0819 
     94 H94        24.4683   -1.6359   -3.8402 H         1 UNK         0.3041 
     95 H95        23.7232   -5.0102   -3.8788 H         1 UNK         0.0784 
     96 H96        26.1261   -5.4290   -4.3633 H         1 UNK         0.0793 
     97 H97        26.5946   -4.0835   -3.3347 H         1 UNK         0.0793 
     98 H98        25.8326   -5.5123   -2.6351 H         1 UNK         0.0793 
     99 H99        24.7937   -3.2632   -1.8411 H         1 UNK         0.3024 
    100 H100       21.9404   -1.4067   -1.1997 H         1 UNK         0.1171 
    101 H101       21.0909   -3.4990   -0.1112 H         1 UNK         0.0786 
    102 H102       21.8088   -2.4150    1.0686 H         1 UNK         0.0786 
    103 H103       22.6984   -3.8351    0.5188 H         1 UNK         0.0786 
    104 H104       24.1807   -1.8025    0.4827 H         1 UNK         0.2977 
    105 H105       27.8754   -0.5275   -5.2936 H         1 UNK         0.3127 
    106 H106       30.3192    0.9711   -5.5614 H         1 UNK         0.0770 
    107 H107       29.3926    2.2552   -3.5940 H         1 UNK         0.0814 
    108 H108       29.3666    0.5298   -3.3224 H         1 UNK         0.0814 
    109 H109       27.8797    1.3712   -3.7350 H         1 UNK         0.0814 
    110 H110       26.8587    1.7287   -6.1612 H         1 UNK         0.2983 
    111 H111       27.3384    4.5070   -6.8567 H         1 UNK         0.0947 
    112 H112       24.9172    4.4967   -7.4026 H         1 UNK         0.0806 
    113 H113       25.1878    3.7676   -5.8285 H         1 UNK         0.0806 
    114 H114       24.8485    2.7506   -7.2286 H         1 UNK         0.0806 
    115 H115       26.9922    1.4433   -8.5975 H         1 UNK         0.3000 
    116 H116       27.1300    2.5606  -11.2595 H         1 UNK         0.0850 
    117 H117       27.4095    0.2656  -11.9752 H         1 UNK         0.0810 
    118 H118       26.2757    0.2144  -10.6336 H         1 UNK         0.0810 
    119 H119       27.9651   -0.2530  -10.3983 H         1 UNK         0.0810 
    120 H120       29.4783    2.2281   -8.7932 H         1 UNK         0.3040 
    121 H121       31.6412    2.5068   -8.5567 H         1 UNK         0.0766 
    122 H122       31.2342    4.6635   -9.7450 H         1 UNK         0.0812 
    123 H123       32.8494    4.0500  -10.0600 H         1 UNK         0.0812 
    124 H124       31.6035    3.8956  -11.2889 H         1 UNK         0.0812 
    125 H125       31.0421   -0.0136   -9.1487 H         1 UNK         0.3205 
    126 H126       32.5372   -1.1250  -11.3425 H         1 UNK         0.0754 
    127 H127       32.0072   -3.2885  -10.2505 H         1 UNK         0.0769 
    128 H128       30.5808   -2.2615  -10.2788 H         1 UNK         0.0769 
    129 H129       31.5053   -2.4536   -8.7879 H         1 UNK         0.0769 
    130 H130       33.4579   -0.1829   -8.1015 H         1 UNK         0.2981 
    131 H131       35.8777   -1.7588   -7.9208 H         1 UNK         0.0541 
    132 H132       38.3847    0.3259   -9.3037 H         1 UNK         0.3459 
    133 H133       37.9947   -1.1884   -8.5310 H         1 UNK         0.3459 
    134 H134       34.9294    0.6586   -6.2850 H         1 UNK         0.0612 
    135 H135       36.3737   -0.2589   -5.9445 H         1 UNK         0.0612 
    136 H136       32.9195    0.1485   -4.6429 H         1 UNK         0.0624 
    137 H137       32.5175   -0.3676   -6.2645 H         1 UNK         0.0624 
@<TRIPOS>BOND
     1    1    2 1    
     2    1   72 1    
     3    1   73 1    
     4    1   74 1    
     5    2    3 2    
     6    2    4 am   BACKBONE|DICT|INTERRES
     7    4    5 1    
     8    4   75 1    
     9    5    6 1    
    10    5   35 1    
    11    5   76 1    
    12    6    7 1    
    13    6   77 1    
    14    6   78 1    
    15    7    8 1    
    16    8    9 1    
    17    8   79 1    
    18    8   80 1    
    19    9   10 ar   
    20    9   14 ar   
    21   10   11 ar   
    22   10   81 1    
    23   11   12 ar   
    24   11   71 1    
    25   12   13 ar   
    26   12   82 1    
    27   13   14 ar   
    28   13   15 1    
    29   14   83 1    
    30   15   16 1    
    31   15   84 1    
    32   15   85 1    
    33   16   17 1    
    34   17   18 1    
    35   17   86 1    
    36   17   87 1    
    37   18   19 1    
    38   18   37 1    
    39   18   88 1    
    40   19   20 am   BACKBONE|DICT|INTERRES
    41   19   89 1    
    42   20   21 2    
    43   20   22 1    
    44   22   23 1    
    45   22   24 1    
    46   22   90 1    
    47   23   91 1    
    48   23   92 1    
    49   23   93 1    
    50   24   25 am   BACKBONE|DICT|INTERRES
    51   24   94 1    
    52   25   26 2    
    53   25   27 1    
    54   27   28 1    
    55   27   29 1    
    56   27   95 1    
    57   28   96 1    
    58   28   97 1    
    59   28   98 1    
    60   29   30 am   BACKBONE|DICT|INTERRES
    61   29   99 1    
    62   30   31 2    
    63   30   32 1    
    64   32   33 1    
    65   32   34 1    
    66   32  100 1    
    67   33  101 1    
    68   33  102 1    
    69   33  103 1    
    70   34   35 am   BACKBONE|DICT|INTERRES
    71   34  104 1    
    72   35   36 2    
    73   37   38 2    
    74   37   39 am   BACKBONE|DICT|INTERRES
    75   39   40 1    
    76   39  105 1    
    77   40   41 1    
    78   40   42 1    
    79   40  106 1    
    80   41  107 1    
    81   41  108 1    
    82   41  109 1    
    83   42   43 2    
    84   42   44 am   BACKBONE|DICT|INTERRES
    85   44   45 1    
    86   44  110 1    
    87   45   46 1    
    88   45   47 1    
    89   45  111 1    
    90   46  112 1    
    91   46  113 1    
    92   46  114 1    
    93   47   48 2    
    94   47   49 am   BACKBONE|DICT|INTERRES
    95   49   50 1    
    96   49  115 1    
    97   50   51 1    
    98   50   52 1    
    99   50  116 1    
   100   51  117 1    
   101   51  118 1    
   102   51  119 1    
   103   52   53 2    
   104   52   54 am   BACKBONE|DICT|INTERRES
   105   54   55 1    
   106   54  120 1    
   107   55   56 1    
   108   55   57 1    
   109   55  121 1    
   110   56  122 1    
   111   56  123 1    
   112   56  124 1    
   113   57   58 2    
   114   57   59 am   BACKBONE|DICT|INTERRES
   115   59   60 1    
   116   59  125 1    
   117   60   61 1    
   118   60   62 1    
   119   60  126 1    
   120   61  127 1    
   121   61  128 1    
   122   61  129 1    
   123   62   63 2    
   124   62   64 am   BACKBONE|DICT|INTERRES
   125   64   65 1    
   126   64  130 1    
   127   65   66 1    
   128   65   69 1    
   129   65  131 1    
   130   66   67 am   BACKBONE|DICT|INTERRES
   131   66   68 2    
   132   67  132 1    
   133   67  133 1    
   134   69   70 1    
   135   69  134 1    
   136   69  135 1    
   137   70   71 1    
   138   71  136 1    
   139   71  137 1    
@<TRIPOS>SUBSTRUCTURE
     1 UNK         1 GROUP             0       ****    0 ROOT    
