@<TRIPOS>MOLECULE
3R137
137   139    1
SMALL
USER_CHARGES


@<TRIPOS>ATOM
      1 CA         28.7159   -5.8925   -0.1190 C.3       0 UNK        -0.2020 
      2 C          27.8357   -4.8833    0.6031 C.2       0 UNK         0.4855 
      3 O          27.0210   -5.2685    1.4415 O.2       0 UNK        -0.5197 
      4 N          27.9914   -3.5925    0.2818 N.am      1 UNK        -0.4892 
      5 CA         27.2154   -2.4822    0.8513 C.3       1 UNK         0.0835 
      6 C6         27.9722   -1.1338    0.7157 C.3       12 UNK        -0.0855 
      7 S7         28.2425   -0.6080   -1.0131 S.3       12 UNK        -0.2931 
      8 C8         29.9823   -1.0511   -1.2980 C.3       12 UNK         0.0378 
      9 C9         30.1989   -1.3555   -2.7708 C.ar      12 UNK        -0.0802 
     10 C10        30.6237   -0.3549   -3.6494 C.ar      12 UNK        -0.0944 
     11 C11        30.7706   -0.6264   -5.0134 C.ar      12 UNK        -0.0787 
     12 C12        30.5101   -1.9146   -5.4912 C.ar      12 UNK        -0.0862 
     13 C13        30.0841   -2.9229   -4.6212 C.ar      12 UNK        -0.0733 
     14 C14        29.9361   -2.6372   -3.2619 C.ar      12 UNK        -0.0832 
     15 C15        29.7801   -4.3230   -5.1387 C.3       12 UNK         0.0240 
     16 S16        28.4715   -4.3549   -6.4071 S.3       12 UNK        -0.2522 
     17 C17        27.0391   -3.6038   -5.5565 C.3       12 UNK        -0.0967 
     18 CA         26.3969   -2.4890   -6.4219 C.3       5 UNK         0.0660 
     19 N          24.9661   -2.3301   -6.1571 N.am      5 UNK        -0.4015 
     20 C          24.0705   -1.9317   -7.0733 C.2       4 UNK         0.4946 
     21 O          24.3416   -1.7346   -8.2582 O.2       4 UNK        -0.5353 
     22 CA         22.6245   -1.7032   -6.5972 C.3       4 UNK         0.0277 
     23 CB         21.7920   -2.9835   -6.7738 C.3       4 UNK        -0.1981 
     24 N          22.5352   -1.2544   -5.2066 N.am      4 UNK        -0.4209 
     25 C          22.9737   -0.0694   -4.7584 C.2       3 UNK         0.4942 
     26 O          23.4502    0.8045   -5.4826 O.2       3 UNK        -0.5208 
     27 CA         22.9080    0.1592   -3.2373 C.3       3 UNK         0.0250 
     28 CB         21.5685    0.8060   -2.8504 C.3       3 UNK        -0.1990 
     29 N          23.1171   -1.0528   -2.4332 N.am      3 UNK        -0.4232 
     30 C          24.2043   -1.8355   -2.4835 C.2       2 UNK         0.4993 
     31 O          25.1370   -1.6697   -3.2744 O.2       2 UNK        -0.5286 
     32 CA         24.2318   -3.0454   -1.5424 C.3       2 UNK         0.0209 
     33 CB         24.0641   -4.3481   -2.3425 C.3       2 UNK        -0.1931 
     34 N          25.5044   -3.0833   -0.8270 N.am      2 UNK        -0.4546 
     35 C          25.7729   -2.4002    0.2950 C.2       1 UNK         0.5154 
     36 O          24.9332   -1.7245    0.8932 O.2       1 UNK        -0.5181 
     37 C          27.1162   -1.1355   -6.2782 C.2       5 UNK         0.5014 
     38 O          27.9323   -0.7979   -7.1346 O.2       5 UNK        -0.5248 
     39 N          26.7535   -0.3541   -5.2468 N.am      6 UNK        -0.4434 
     40 CA         27.2856    0.9849   -4.9542 C.3       6 UNK         0.0363 
     41 CB         26.5885    1.5463   -3.7059 C.3       6 UNK        -0.1936 
     42 C          27.1648    1.9956   -6.1108 C.2       6 UNK         0.5081 
     43 O          27.9580    2.9342   -6.1796 O.2       6 UNK        -0.5248 
     44 N          26.1807    1.7859   -6.9940 N.am      7 UNK        -0.4718 
     45 CA         25.9590    2.5527   -8.2185 C.3       7 UNK         0.0273 
     46 CB         24.5618    2.2081   -8.7607 C.3       7 UNK        -0.1935 
     47 C          27.0279    2.3368   -9.3104 C.2       7 UNK         0.5018 
     48 O          27.0927    3.1526  -10.2320 O.2       7 UNK        -0.5186 
     49 N          27.8226    1.2575   -9.2285 N.am      8 UNK        -0.4240 
     50 CA         28.8834    0.9475  -10.1913 C.3       8 UNK         0.0235 
     51 CB         29.3349   -0.5117  -10.0137 C.3       8 UNK        -0.2000 
     52 C          30.0840    1.8967  -10.0454 C.2       8 UNK         0.4941 
     53 O          30.4594    2.2484   -8.9251 O.2       8 UNK        -0.5273 
     54 N          30.6858    2.2624  -11.1821 N.am      9 UNK        -0.4262 
     55 CA         31.9178    3.0473  -11.2463 C.3       9 UNK         0.0264 
     56 CB         31.9041    3.8965  -12.5284 C.3       9 UNK        -0.1955 
     57 C          33.1387    2.1156  -11.2369 C.2       9 UNK         0.5031 
     58 O          33.0630    1.0098  -11.7793 O.2       9 UNK        -0.5390 
     59 N          34.2468    2.6038  -10.6601 N.am      10 UNK        -0.4204 
     60 CA         35.5696    1.9631  -10.5969 C.3       10 UNK         0.0237 
     61 CB         36.2135    1.9169  -12.0001 C.3       10 UNK        -0.1985 
     62 C          35.5741    0.5889   -9.8926 C.2       10 UNK         0.4970 
     63 O          36.3238   -0.3040  -10.2929 O.2       10 UNK        -0.4914 
     64 N          34.7463    0.4462   -8.8497 N.am      11 UNK        -0.4285 
     65 CA         34.6338   -0.7682   -8.0255 C.3       11 UNK         0.1007 
     66 C          35.8354   -1.0414   -7.0716 C.2       11 UNK         0.5703 
     67 N          36.7515   -0.1020   -6.8653 N.am      11 UNK        -0.7361 
     68 O          35.9461   -2.1349   -6.5217 O.2       11 UNK        -0.4986 
     69 C69        33.2718   -0.8305   -7.2860 C.3       12 UNK        -0.0947 
     70 S70        32.9603    0.5996   -6.1939 S.3       12 UNK        -0.2240 
     71 C71        31.1588    0.4858   -5.9764 C.3       12 UNK         0.0194 
     72 H72        28.1006   -6.5766   -0.7028 H         1 UNK         0.0906 
     73 H73        29.4235   -5.4117   -0.7939 H         1 UNK         0.0906 
     74 H74        29.2839   -6.4783    0.6033 H         1 UNK         0.0906 
     75 H75        28.6725   -3.3259   -0.4123 H         1 UNK         0.3140 
     76 H76        27.1058   -2.6776    1.9208 H         1 UNK         0.1085 
     77 H77        27.4185   -0.3425    1.2247 H         1 UNK         0.0836 
     78 H78        28.9309   -1.1907    1.2337 H         1 UNK         0.0836 
     79 H79        30.6238   -0.2304   -0.9733 H         1 UNK         0.0731 
     80 H80        30.2617   -1.9175   -0.6972 H         1 UNK         0.0731 
     81 H81        30.8118    0.6429   -3.2771 H         1 UNK         0.1312 
     82 H82        30.6058   -2.1249   -6.5476 H         1 UNK         0.1406 
     83 H83        29.5998   -3.4107   -2.5869 H         1 UNK         0.1631 
     84 H84        29.4886   -4.9869   -4.3233 H         1 UNK         0.0717 
     85 H85        30.6908   -4.7451   -5.5653 H         1 UNK         0.0717 
     86 H86        26.3209   -4.4080   -5.3895 H         1 UNK         0.0934 
     87 H87        27.3091   -3.2395   -4.5633 H         1 UNK         0.0934 
     88 H88        26.4983   -2.7885   -7.4679 H         1 UNK         0.0739 
     89 H89        24.6838   -2.3924   -5.1867 H         1 UNK         0.3093 
     90 H90        22.1920   -0.9236   -7.2284 H         1 UNK         0.0818 
     91 H91        20.7451   -2.8149   -6.5206 H         1 UNK         0.0819 
     92 H92        21.8209   -3.3269   -7.8090 H         1 UNK         0.0819 
     93 H93        22.1628   -3.7981   -6.1503 H         1 UNK         0.0819 
     94 H94        22.1440   -1.9028   -4.5390 H         1 UNK         0.3041 
     95 H95        23.7051    0.8564   -2.9768 H         1 UNK         0.0784 
     96 H96        21.4000    1.7227   -3.4178 H         1 UNK         0.0793 
     97 H97        20.7258    0.1419   -3.0468 H         1 UNK         0.0793 
     98 H98        21.5469    1.0744   -1.7940 H         1 UNK         0.0793 
     99 H99        22.3938   -1.2715   -1.7627 H         1 UNK         0.3024 
    100 H100       23.4138   -2.9709   -0.8219 H         1 UNK         0.1171 
    101 H101       24.8582   -4.4786   -3.0790 H         1 UNK         0.0786 
    102 H102       23.1150   -4.3585   -2.8801 H         1 UNK         0.0786 
    103 H103       24.0723   -5.2184   -1.6858 H         1 UNK         0.0786 
    104 H104       26.2660   -3.5673   -1.2779 H         1 UNK         0.2977 
    105 H105       26.1050   -0.7367   -4.5615 H         1 UNK         0.3127 
    106 H106       28.3452    0.8639   -4.7316 H         1 UNK         0.0770 
    107 H107       25.5628    1.8430   -3.9233 H         1 UNK         0.0814 
    108 H108       27.1095    2.4306   -3.3375 H         1 UNK         0.0814 
    109 H109       26.5627    0.8207   -2.8942 H         1 UNK         0.0814 
    110 H110       25.5461    1.0187   -6.8159 H         1 UNK         0.2983 
    111 H111       25.9756    3.6131   -7.9578 H         1 UNK         0.0947 
    112 H112       24.3333    2.7893   -9.6551 H         1 UNK         0.0806 
    113 H113       23.7860    2.4261   -8.0261 H         1 UNK         0.0806 
    114 H114       24.4832    1.1529   -9.0269 H         1 UNK         0.0806 
    115 H115       27.7521    0.6446   -8.4198 H         1 UNK         0.3000 
    116 H116       28.4659    1.0557  -11.1949 H         1 UNK         0.0850 
    117 H117       30.0667   -0.7896  -10.7735 H         1 UNK         0.0810 
    118 H118       28.4960   -1.2025  -10.0997 H         1 UNK         0.0810 
    119 H119       29.8019   -0.6731   -9.0414 H         1 UNK         0.0810 
    120 H120       30.3598    1.8747  -12.0558 H         1 UNK         0.3040 
    121 H121       31.9708    3.7195  -10.3867 H         1 UNK         0.0766 
    122 H122       32.7997    4.5154  -12.5979 H         1 UNK         0.0812 
    123 H123       31.0454    4.5679  -12.5499 H         1 UNK         0.0812 
    124 H124       31.8675    3.2761  -13.4251 H         1 UNK         0.0812 
    125 H125       34.1933    3.5224  -10.2404 H         1 UNK         0.3205 
    126 H126       36.1903    2.6123   -9.9775 H         1 UNK         0.0754 
    127 H127       37.2468    1.5713  -11.9482 H         1 UNK         0.0769 
    128 H128       36.2282    2.9037  -12.4628 H         1 UNK         0.0769 
    129 H129       35.6778    1.2416  -12.6683 H         1 UNK         0.0769 
    130 H130       34.1657    1.2226   -8.5694 H         1 UNK         0.2981 
    131 H131       34.6372   -1.6109   -8.7197 H         1 UNK         0.0541 
    132 H132       37.5267   -0.2952   -6.2511 H         1 UNK         0.3459 
    133 H133       36.6674    0.7996   -7.3052 H         1 UNK         0.3459 
    134 H134       33.1920   -1.7463   -6.6977 H         1 UNK         0.0612 
    135 H135       32.4693   -0.8799   -8.0239 H         1 UNK         0.0612 
    136 H136       30.7908    1.4431   -5.6043 H         1 UNK         0.0624 
    137 H137       30.6741    0.3373   -6.9423 H         1 UNK         0.0624 
@<TRIPOS>BOND
     1    1    2 1    
     2    1   72 1    
     3    1   73 1    
     4    1   74 1    
     5    2    3 2    
     6    2    4 am   BACKBONE|DICT|INTERRES
     7    4    5 1    
     8    4   75 1    
     9    5    6 1    
    10    5   35 1    
    11    5   76 1    
    12    6    7 1    
    13    6   77 1    
    14    6   78 1    
    15    7    8 1    
    16    8    9 1    
    17    8   79 1    
    18    8   80 1    
    19    9   10 ar   
    20    9   14 ar   
    21   10   11 ar   
    22   10   81 1    
    23   11   12 ar   
    24   11   71 1    
    25   12   13 ar   
    26   12   82 1    
    27   13   14 ar   
    28   13   15 1    
    29   14   83 1    
    30   15   16 1    
    31   15   84 1    
    32   15   85 1    
    33   16   17 1    
    34   17   18 1    
    35   17   86 1    
    36   17   87 1    
    37   18   19 1    
    38   18   37 1    
    39   18   88 1    
    40   19   20 am   BACKBONE|DICT|INTERRES
    41   19   89 1    
    42   20   21 2    
    43   20   22 1    
    44   22   23 1    
    45   22   24 1    
    46   22   90 1    
    47   23   91 1    
    48   23   92 1    
    49   23   93 1    
    50   24   25 am   BACKBONE|DICT|INTERRES
    51   24   94 1    
    52   25   26 2    
    53   25   27 1    
    54   27   28 1    
    55   27   29 1    
    56   27   95 1    
    57   28   96 1    
    58   28   97 1    
    59   28   98 1    
    60   29   30 am   BACKBONE|DICT|INTERRES
    61   29   99 1    
    62   30   31 2    
    63   30   32 1    
    64   32   33 1    
    65   32   34 1    
    66   32  100 1    
    67   33  101 1    
    68   33  102 1    
    69   33  103 1    
    70   34   35 am   BACKBONE|DICT|INTERRES
    71   34  104 1    
    72   35   36 2    
    73   37   38 2    
    74   37   39 am   BACKBONE|DICT|INTERRES
    75   39   40 1    
    76   39  105 1    
    77   40   41 1    
    78   40   42 1    
    79   40  106 1    
    80   41  107 1    
    81   41  108 1    
    82   41  109 1    
    83   42   43 2    
    84   42   44 am   BACKBONE|DICT|INTERRES
    85   44   45 1    
    86   44  110 1    
    87   45   46 1    
    88   45   47 1    
    89   45  111 1    
    90   46  112 1    
    91   46  113 1    
    92   46  114 1    
    93   47   48 2    
    94   47   49 am   BACKBONE|DICT|INTERRES
    95   49   50 1    
    96   49  115 1    
    97   50   51 1    
    98   50   52 1    
    99   50  116 1    
   100   51  117 1    
   101   51  118 1    
   102   51  119 1    
   103   52   53 2    
   104   52   54 am   BACKBONE|DICT|INTERRES
   105   54   55 1    
   106   54  120 1    
   107   55   56 1    
   108   55   57 1    
   109   55  121 1    
   110   56  122 1    
   111   56  123 1    
   112   56  124 1    
   113   57   58 2    
   114   57   59 am   BACKBONE|DICT|INTERRES
   115   59   60 1    
   116   59  125 1    
   117   60   61 1    
   118   60   62 1    
   119   60  126 1    
   120   61  127 1    
   121   61  128 1    
   122   61  129 1    
   123   62   63 2    
   124   62   64 am   BACKBONE|DICT|INTERRES
   125   64   65 1    
   126   64  130 1    
   127   65   66 1    
   128   65   69 1    
   129   65  131 1    
   130   66   67 am   BACKBONE|DICT|INTERRES
   131   66   68 2    
   132   67  132 1    
   133   67  133 1    
   134   69   70 1    
   135   69  134 1    
   136   69  135 1    
   137   70   71 1    
   138   71  136 1    
   139   71  137 1    
@<TRIPOS>SUBSTRUCTURE
     1 UNK         1 GROUP             0       ****    0 ROOT    
