@<TRIPOS>MOLECULE
3R137
137   139    1
SMALL
USER_CHARGES


@<TRIPOS>ATOM
      1 CA         28.3429   -0.3268    3.9358 C.3       0 UNK        -0.2020 
      2 C          28.6932   -0.9260    2.5819 C.2       0 UNK         0.4855 
      3 O          29.8555   -0.8885    2.1777 O.2       0 UNK        -0.5197 
      4 N          27.6984   -1.4742    1.8773 N.am      1 UNK        -0.4892 
      5 CA         27.8167   -2.0499    0.5383 C.3       1 UNK         0.0835 
      6 C6         28.5139   -3.4429    0.5401 C.3       12 UNK        -0.0855 
      7 S7         29.2096   -4.0738   -1.0383 S.3       12 UNK        -0.2931 
      8 C8         29.4096   -2.6300   -2.1427 C.3       12 UNK         0.0378 
      9 C9         29.8494   -3.0449   -3.5407 C.ar      12 UNK        -0.0802 
     10 C10        31.0028   -2.4991   -4.1114 C.ar      12 UNK        -0.0944 
     11 C11        31.4110   -2.8691   -5.4016 C.ar      12 UNK        -0.0787 
     12 C12        30.6430   -3.8017   -6.1108 C.ar      12 UNK        -0.0862 
     13 C13        29.4920   -4.3633   -5.5484 C.ar      12 UNK        -0.0733 
     14 C14        29.0941   -3.9667   -4.2703 C.ar      12 UNK        -0.0832 
     15 C15        28.7178   -5.4524   -6.2829 C.3       12 UNK         0.0240 
     16 S16        27.6605   -4.8183   -7.6225 S.3       12 UNK        -0.2522 
     17 C17        26.3807   -3.8837   -6.7124 C.3       12 UNK        -0.0967 
     18 CA         26.0248   -2.5444   -7.4036 C.3       5 UNK         0.0660 
     19 N          24.8715   -1.8928   -6.7858 N.am      5 UNK        -0.4015 
     20 C          24.0449   -1.0569   -7.4310 C.2       4 UNK         0.4946 
     21 O          24.0863   -0.8516   -8.6444 O.2       4 UNK        -0.5353 
     22 CA         22.9959   -0.3094   -6.5870 C.3       4 UNK         0.0277 
     23 CB         21.6653   -1.0792   -6.5789 C.3       4 UNK        -0.1981 
     24 N          23.4192   -0.0585   -5.2068 N.am      4 UNK        -0.4209 
     25 C          24.4433    0.7308   -4.8520 C.2       3 UNK         0.4942 
     26 O          25.1357    1.3615   -5.6497 O.2       3 UNK        -0.5208 
     27 CA         24.7872    0.7834   -3.3545 C.3       3 UNK         0.0250 
     28 CB         23.9454    1.8572   -2.6475 C.3       3 UNK        -0.1990 
     29 N          24.6433   -0.4966   -2.6498 N.am      3 UNK        -0.4232 
     30 C          25.2296   -1.6504   -2.9983 C.2       2 UNK         0.4993 
     31 O          25.9202   -1.7951   -4.0105 O.2       2 UNK        -0.5286 
     32 CA         25.0532   -2.8287   -2.0284 C.3       2 UNK         0.0209 
     33 CB         24.9393   -4.1688   -2.7773 C.3       2 UNK        -0.1931 
     34 N          26.2027   -2.8764   -1.1275 N.am      2 UNK        -0.4546 
     35 C          26.4158   -2.0334   -0.1097 C.2       1 UNK         0.5154 
     36 O          25.5598   -1.2448    0.3027 O.2       1 UNK        -0.5181 
     37 C          27.2086   -1.5635   -7.4305 C.2       5 UNK         0.5014 
     38 O          27.7874   -1.3554   -8.4962 O.2       5 UNK        -0.5248 
     39 N          27.5232   -0.9617   -6.2721 N.am      6 UNK        -0.4434 
     40 CA         28.6612   -0.0597   -6.0781 C.3       6 UNK         0.0363 
     41 CB         28.6972    0.4366   -4.6251 C.3       6 UNK        -0.1936 
     42 C          28.6814    1.1291   -7.0504 C.2       6 UNK         0.5081 
     43 O          29.7137    1.3815   -7.6668 O.2       6 UNK        -0.5248 
     44 N          27.5329    1.8011   -7.2133 N.am      7 UNK        -0.4718 
     45 CA         27.3585    2.9434   -8.1171 C.3       7 UNK         0.0273 
     46 CB         26.0093    3.6171   -7.8192 C.3       7 UNK        -0.1935 
     47 C          27.4617    2.5922   -9.6137 C.2       7 UNK         0.5018 
     48 O          27.6758    3.4952  -10.4234 O.2       7 UNK        -0.5186 
     49 N          27.3092    1.3074   -9.9584 N.am      8 UNK        -0.4240 
     50 CA         27.4453    0.7785  -11.3163 C.3       8 UNK         0.0235 
     51 CB         26.3367   -0.2650  -11.5443 C.3       8 UNK        -0.2000 
     52 C          28.8373    0.1659  -11.5659 C.2       8 UNK         0.4941 
     53 O          29.0635   -0.3695  -12.6528 O.2       8 UNK        -0.5273 
     54 N          29.7343    0.2300  -10.5745 N.am      9 UNK        -0.4262 
     55 CA         31.0609   -0.3775  -10.5786 C.3       9 UNK         0.0264 
     56 CB         31.0430   -1.5459   -9.5741 C.3       9 UNK        -0.1955 
     57 C          32.1247    0.6705  -10.2158 C.2       9 UNK         0.5031 
     58 O          31.8061    1.8431  -10.0011 O.2       9 UNK        -0.5390 
     59 N          33.3854    0.2225  -10.1344 N.am      10 UNK        -0.4204 
     60 CA         34.5526    1.0323   -9.7599 C.3       10 UNK         0.0237 
     61 CB         35.8275    0.2002   -9.9786 C.3       10 UNK        -0.1985 
     62 C          34.5150    1.5885   -8.3214 C.2       10 UNK         0.4970 
     63 O          35.2679    2.5158   -8.0206 O.2       10 UNK        -0.4914 
     64 N          33.6524    1.0233   -7.4673 N.am      11 UNK        -0.4285 
     65 CA         33.3871    1.4874   -6.0982 C.3       11 UNK         0.1007 
     66 C          32.6332    2.8483   -6.0138 C.2       11 UNK         0.5703 
     67 N          32.0419    3.3575   -7.0883 N.am      11 UNK        -0.7361 
     68 O          32.6029    3.4631   -4.9504 O.2       11 UNK        -0.4986 
     69 C69        32.6716    0.3974   -5.2579 C.3       12 UNK        -0.0947 
     70 S70        33.6641   -1.1264   -5.0981 S.3       12 UNK        -0.2240 
     71 C71        32.6814   -2.3261   -6.0661 C.3       12 UNK         0.0194 
     72 H72        28.9127   -0.8201    4.7229 H         1 UNK         0.0906 
     73 H73        28.5885    0.7347    3.9514 H         1 UNK         0.0906 
     74 H74        27.2832   -0.4332    4.1675 H         1 UNK         0.0906 
     75 H75        26.7429   -1.4135    2.2095 H         1 UNK         0.3140 
     76 H76        28.4215   -1.3454   -0.0334 H         1 UNK         0.1085 
     77 H77        29.3555   -3.4207    1.2338 H         1 UNK         0.0836 
     78 H78        27.8404   -4.2002    0.9460 H         1 UNK         0.0836 
     79 H79        28.4744   -2.0838   -2.2477 H         1 UNK         0.0731 
     80 H80        30.1303   -1.9421   -1.6973 H         1 UNK         0.0731 
     81 H81        31.5777   -1.7889   -3.5360 H         1 UNK         0.1312 
     82 H82        30.9536   -4.1111   -7.0997 H         1 UNK         0.1406 
     83 H83        28.2091   -4.3989   -3.8255 H         1 UNK         0.1631 
     84 H84        28.1029   -6.0253   -5.5869 H         1 UNK         0.0717 
     85 H85        29.4261   -6.1638   -6.7101 H         1 UNK         0.0717 
     86 H86        25.4930   -4.5152   -6.6527 H         1 UNK         0.0934 
     87 H87        26.6950   -3.7154   -5.6829 H         1 UNK         0.0934 
     88 H88        25.7696   -2.7748   -8.4408 H         1 UNK         0.0739 
     89 H89        24.8179   -1.9503   -5.7761 H         1 UNK         0.3093 
     90 H90        22.8286    0.6596   -7.0626 H         1 UNK         0.0818 
     91 H91        20.8854   -0.5197   -6.0620 H         1 UNK         0.0819 
     92 H92        21.3124   -1.2575   -7.5958 H         1 UNK         0.0819 
     93 H93        21.7620   -2.0509   -6.0930 H         1 UNK         0.0819 
     94 H94        22.9084   -0.5340   -4.4771 H         1 UNK         0.3041 
     95 H95        25.8353    1.0737   -3.2725 H         1 UNK         0.0784 
     96 H96        24.0525    2.8246   -3.1407 H         1 UNK         0.0793 
     97 H97        22.8839    1.6061   -2.6487 H         1 UNK         0.0793 
     98 H98        24.2585    1.9887   -1.6115 H         1 UNK         0.0793 
     99 H99        24.1442   -0.4662   -1.7710 H         1 UNK         0.3024 
    100 H100       24.1396   -2.6828   -1.4472 H         1 UNK         0.1171 
    101 H101       24.1018   -4.1549   -3.4761 H         1 UNK         0.0786 
    102 H102       24.7694   -4.9939   -2.0855 H         1 UNK         0.0786 
    103 H103       25.8376   -4.3960   -3.3513 H         1 UNK         0.0786 
    104 H104       26.9562   -3.4997   -1.3880 H         1 UNK         0.2977 
    105 H105       26.9844   -1.1995   -5.4422 H         1 UNK         0.3127 
    106 H106       29.5586   -0.6532   -6.2606 H         1 UNK         0.0770 
    107 H107       27.8486    1.0815   -4.4006 H         1 UNK         0.0814 
    108 H108       29.6026    1.0140   -4.4342 H         1 UNK         0.0814 
    109 H109       28.6842   -0.3918   -3.9200 H         1 UNK         0.0814 
    110 H110       26.7182    1.5263   -6.6668 H         1 UNK         0.2983 
    111 H111       28.1545    3.6597   -7.9023 H         1 UNK         0.0947 
    112 H112       25.8630    4.4985   -8.4452 H         1 UNK         0.0806 
    113 H113       25.9495    3.9437   -6.7808 H         1 UNK         0.0806 
    114 H114       25.1739    2.9406   -8.0051 H         1 UNK         0.0806 
    115 H115       27.1981    0.6160   -9.2248 H         1 UNK         0.3000 
    116 H116       27.3107    1.5797  -12.0457 H         1 UNK         0.0850 
    117 H117       26.3585   -0.6463  -12.5659 H         1 UNK         0.0810 
    118 H118       25.3480    0.1639  -11.3800 H         1 UNK         0.0810 
    119 H119       26.4435   -1.1191  -10.8743 H         1 UNK         0.0810 
    120 H120       29.5080    0.7475   -9.7313 H         1 UNK         0.3040 
    121 H121       31.3069   -0.7610  -11.5708 H         1 UNK         0.0766 
    122 H122       31.9969   -2.0718   -9.5348 H         1 UNK         0.0812 
    123 H123       30.2860   -2.2820   -9.8464 H         1 UNK         0.0812 
    124 H124       30.8050   -1.1993   -8.5677 H         1 UNK         0.0812 
    125 H125       33.5666   -0.7486  -10.3452 H         1 UNK         0.3205 
    126 H126       34.5855    1.8923  -10.4322 H         1 UNK         0.0754 
    127 H127       36.7201    0.7830   -9.7461 H         1 UNK         0.0769 
    128 H128       35.9185   -0.1243  -11.0155 H         1 UNK         0.0769 
    129 H129       35.8442   -0.6871   -9.3441 H         1 UNK         0.0769 
    130 H130       33.0629    0.2794   -7.8034 H         1 UNK         0.2981 
    131 H131       34.3582    1.6667   -5.6327 H         1 UNK         0.0541 
    132 H132       31.5632    4.2398   -7.0146 H         1 UNK         0.3459 
    133 H133       31.9915    2.8270   -7.9490 H         1 UNK         0.3459 
    134 H134       31.6995    0.1622   -5.6916 H         1 UNK         0.0612 
    135 H135       32.4738    0.7592   -4.2473 H         1 UNK         0.0612 
    136 H136       32.4253   -1.8725   -7.0220 H         1 UNK         0.0624 
    137 H137       33.3315   -3.1717   -6.2944 H         1 UNK         0.0624 
@<TRIPOS>BOND
     1    1    2 1    
     2    1   72 1    
     3    1   73 1    
     4    1   74 1    
     5    2    3 2    
     6    2    4 am   BACKBONE|DICT|INTERRES
     7    4    5 1    
     8    4   75 1    
     9    5    6 1    
    10    5   35 1    
    11    5   76 1    
    12    6    7 1    
    13    6   77 1    
    14    6   78 1    
    15    7    8 1    
    16    8    9 1    
    17    8   79 1    
    18    8   80 1    
    19    9   10 ar   
    20    9   14 ar   
    21   10   11 ar   
    22   10   81 1    
    23   11   12 ar   
    24   11   71 1    
    25   12   13 ar   
    26   12   82 1    
    27   13   14 ar   
    28   13   15 1    
    29   14   83 1    
    30   15   16 1    
    31   15   84 1    
    32   15   85 1    
    33   16   17 1    
    34   17   18 1    
    35   17   86 1    
    36   17   87 1    
    37   18   19 1    
    38   18   37 1    
    39   18   88 1    
    40   19   20 am   BACKBONE|DICT|INTERRES
    41   19   89 1    
    42   20   21 2    
    43   20   22 1    
    44   22   23 1    
    45   22   24 1    
    46   22   90 1    
    47   23   91 1    
    48   23   92 1    
    49   23   93 1    
    50   24   25 am   BACKBONE|DICT|INTERRES
    51   24   94 1    
    52   25   26 2    
    53   25   27 1    
    54   27   28 1    
    55   27   29 1    
    56   27   95 1    
    57   28   96 1    
    58   28   97 1    
    59   28   98 1    
    60   29   30 am   BACKBONE|DICT|INTERRES
    61   29   99 1    
    62   30   31 2    
    63   30   32 1    
    64   32   33 1    
    65   32   34 1    
    66   32  100 1    
    67   33  101 1    
    68   33  102 1    
    69   33  103 1    
    70   34   35 am   BACKBONE|DICT|INTERRES
    71   34  104 1    
    72   35   36 2    
    73   37   38 2    
    74   37   39 am   BACKBONE|DICT|INTERRES
    75   39   40 1    
    76   39  105 1    
    77   40   41 1    
    78   40   42 1    
    79   40  106 1    
    80   41  107 1    
    81   41  108 1    
    82   41  109 1    
    83   42   43 2    
    84   42   44 am   BACKBONE|DICT|INTERRES
    85   44   45 1    
    86   44  110 1    
    87   45   46 1    
    88   45   47 1    
    89   45  111 1    
    90   46  112 1    
    91   46  113 1    
    92   46  114 1    
    93   47   48 2    
    94   47   49 am   BACKBONE|DICT|INTERRES
    95   49   50 1    
    96   49  115 1    
    97   50   51 1    
    98   50   52 1    
    99   50  116 1    
   100   51  117 1    
   101   51  118 1    
   102   51  119 1    
   103   52   53 2    
   104   52   54 am   BACKBONE|DICT|INTERRES
   105   54   55 1    
   106   54  120 1    
   107   55   56 1    
   108   55   57 1    
   109   55  121 1    
   110   56  122 1    
   111   56  123 1    
   112   56  124 1    
   113   57   58 2    
   114   57   59 am   BACKBONE|DICT|INTERRES
   115   59   60 1    
   116   59  125 1    
   117   60   61 1    
   118   60   62 1    
   119   60  126 1    
   120   61  127 1    
   121   61  128 1    
   122   61  129 1    
   123   62   63 2    
   124   62   64 am   BACKBONE|DICT|INTERRES
   125   64   65 1    
   126   64  130 1    
   127   65   66 1    
   128   65   69 1    
   129   65  131 1    
   130   66   67 am   BACKBONE|DICT|INTERRES
   131   66   68 2    
   132   67  132 1    
   133   67  133 1    
   134   69   70 1    
   135   69  134 1    
   136   69  135 1    
   137   70   71 1    
   138   71  136 1    
   139   71  137 1    
@<TRIPOS>SUBSTRUCTURE
     1 UNK         1 GROUP             0       ****    0 ROOT    
