@<TRIPOS>MOLECULE
3R137
137   139    1
SMALL
USER_CHARGES


@<TRIPOS>ATOM
      1 CA         31.0096    0.9405   -2.5270 C.3       0 UNK        -0.2020 
      2 C          29.9473   -0.1434   -2.5656 C.2       0 UNK         0.4855 
      3 O          29.0625   -0.0974   -3.4177 O.2       0 UNK        -0.5197 
      4 N          30.0307   -1.1197   -1.6539 N.am      1 UNK        -0.4892 
      5 CA         29.0598   -2.2092   -1.5065 C.3       1 UNK         0.0835 
      6 C6         29.5363   -3.2984   -0.5093 C.3       12 UNK        -0.0855 
      7 S7         31.2474   -3.8777   -0.7708 S.3       12 UNK        -0.2931 
      8 C8         31.0105   -5.3312   -1.8396 C.3       12 UNK         0.0378 
      9 C9         30.9839   -4.9448   -3.3105 C.ar      12 UNK        -0.0802 
     10 C10        32.1642   -4.5351   -3.9379 C.ar      12 UNK        -0.0944 
     11 C11        32.1730   -4.2166   -5.2973 C.ar      12 UNK        -0.0787 
     12 C12        30.9841   -4.2988   -6.0288 C.ar      12 UNK        -0.0862 
     13 C13        29.7926   -4.6981   -5.4137 C.ar      12 UNK        -0.0733 
     14 C14        29.8017   -5.0285   -4.0530 C.ar      12 UNK        -0.0832 
     15 C15        28.5138   -4.8052   -6.2406 C.3       12 UNK         0.0240 
     16 S16        27.0734   -3.9909   -5.4727 S.3       12 UNK        -0.2522 
     17 C17        27.6107   -2.2511   -5.4198 C.3       12 UNK        -0.0967 
     18 CA         27.0247   -1.3980   -6.5679 C.3       5 UNK         0.0660 
     19 N          25.5541   -1.3378   -6.5444 N.am      5 UNK        -0.4015 
     20 C          24.7953   -0.6649   -7.4267 C.2       4 UNK         0.4946 
     21 O          25.2570    0.0445   -8.3209 O.2       4 UNK        -0.5353 
     22 CA         23.2666   -0.7712   -7.3101 C.3       4 UNK         0.0277 
     23 CB         22.7342   -1.8234   -8.2959 C.3       4 UNK        -0.1981 
     24 N          22.7745   -1.0732   -5.9662 N.am      4 UNK        -0.4209 
     25 C          22.9083   -0.2796   -4.8953 C.2       3 UNK         0.4942 
     26 O          23.5064    0.7981   -4.9100 O.2       3 UNK        -0.5208 
     27 CA         22.2784   -0.7691   -3.5759 C.3       3 UNK         0.0250 
     28 CB         21.4315   -2.0569   -3.7107 C.3       3 UNK        -0.1990 
     29 N          23.2816   -0.9341   -2.5195 N.am      3 UNK        -0.4232 
     30 C          24.3927   -1.6818   -2.5780 C.2       2 UNK         0.4993 
     31 O          24.7404   -2.3402   -3.5621 O.2       2 UNK        -0.5286 
     32 CA         25.2396   -1.7187   -1.3035 C.3       2 UNK         0.0209 
     33 CB         24.6433   -2.6960   -0.2741 C.3       2 UNK        -0.1931 
     34 N          26.6003   -2.1361   -1.6334 N.am      2 UNK        -0.4546 
     35 C          27.6970   -1.6537   -1.0413 C.2       1 UNK         0.5154 
     36 O          27.6663   -0.8252   -0.1263 O.2       1 UNK        -0.5181 
     37 C          27.6918   -0.0100   -6.5618 C.2       5 UNK         0.5014 
     38 O          28.6855    0.1811   -7.2646 O.2       5 UNK        -0.5248 
     39 N          27.1108    0.9401   -5.8167 N.am      6 UNK        -0.4434 
     40 CA         27.5917    2.3168   -5.6948 C.3       6 UNK         0.0363 
     41 CB         26.7952    3.0263   -4.5887 C.3       6 UNK        -0.1936 
     42 C          27.5322    3.1208   -7.0073 C.2       6 UNK         0.5081 
     43 O          28.2842    4.0851   -7.1466 O.2       6 UNK        -0.5248 
     44 N          26.6551    2.7182   -7.9363 N.am      7 UNK        -0.4718 
     45 CA         26.5135    3.3193   -9.2616 C.3       7 UNK         0.0273 
     46 CB         25.0208    3.5408   -9.5579 C.3       7 UNK        -0.1935 
     47 C          27.1494    2.4362  -10.3442 C.2       7 UNK         0.5018 
     48 O          27.8316    2.9610  -11.2247 O.2       7 UNK        -0.5186 
     49 N          26.8985    1.1211  -10.2774 N.am      8 UNK        -0.4240 
     50 CA         27.3086    0.1435  -11.2855 C.3       8 UNK         0.0235 
     51 CB         26.4967   -1.1494  -11.0991 C.3       8 UNK        -0.2000 
     52 C          28.8119   -0.1679  -11.2734 C.2       8 UNK         0.4941 
     53 O          29.3786   -0.3874  -12.3452 O.2       8 UNK        -0.5273 
     54 N          29.4196   -0.2079  -10.0806 N.am      9 UNK        -0.4262 
     55 CA         30.8249   -0.5689   -9.8832 C.3       9 UNK         0.0264 
     56 CB         30.9010   -1.8508   -9.0389 C.3       9 UNK        -0.1955 
     57 C          31.6184    0.5762   -9.2375 C.2       9 UNK         0.5031 
     58 O          32.7435    0.8330   -9.6679 O.2       9 UNK        -0.5390 
     59 N          31.0168    1.2516   -8.2446 N.am      10 UNK        -0.4204 
     60 CA         31.5510    2.3914   -7.4871 C.3       10 UNK         0.0237 
     61 CB         31.6748    3.6375   -8.3895 C.3       10 UNK        -0.1985 
     62 C          32.8550    2.0469   -6.7400 C.2       10 UNK         0.4970 
     63 O          33.8412    2.7795   -6.8335 O.2       10 UNK        -0.4914 
     64 N          32.8266    0.9215   -6.0164 N.am      11 UNK        -0.4285 
     65 CA         33.9640    0.3226   -5.2945 C.3       11 UNK         0.1007 
     66 C          34.4423    1.0823   -4.0191 C.2       11 UNK         0.5703 
     67 N          33.8928    2.2409   -3.6767 N.am      11 UNK        -0.7361 
     68 O          35.3446    0.6159   -3.3277 O.2       11 UNK        -0.4986 
     69 C69        33.7051   -1.1835   -5.0135 C.3       12 UNK        -0.0947 
     70 S70        33.4817   -2.1132   -6.5642 S.3       12 UNK        -0.2240 
     71 C71        33.4761   -3.8360   -5.9864 C.3       12 UNK         0.0194 
     72 H72        30.6397    1.8097   -1.9842 H         1 UNK         0.0906 
     73 H73        31.9235    0.5938   -2.0451 H         1 UNK         0.0906 
     74 H74        31.2552    1.2536   -3.5402 H         1 UNK         0.0906 
     75 H75        30.7768   -1.1127   -0.9733 H         1 UNK         0.3140 
     76 H76        28.9362   -2.6689   -2.4894 H         1 UNK         0.1085 
     77 H77        29.4951   -2.9173    0.5136 H         1 UNK         0.0836 
     78 H78        28.8580   -4.1534   -0.5301 H         1 UNK         0.0836 
     79 H79        30.1068   -5.8712   -1.5534 H         1 UNK         0.0731 
     80 H80        31.8381   -6.0223   -1.6732 H         1 UNK         0.0731 
     81 H81        33.0803   -4.4801   -3.3655 H         1 UNK         0.1312 
     82 H82        30.9949   -4.0623   -7.0837 H         1 UNK         0.1406 
     83 H83        28.8878   -5.3567   -3.5766 H         1 UNK         0.1631 
     84 H84        28.2811   -5.8606   -6.3866 H         1 UNK         0.0717 
     85 H85        28.6584   -4.3812   -7.2357 H         1 UNK         0.0717 
     86 H86        27.3083   -1.8370   -4.4572 H         1 UNK         0.0934 
     87 H87        28.7021   -2.2119   -5.4254 H         1 UNK         0.0934 
     88 H88        27.3017   -1.8702   -7.5127 H         1 UNK         0.0739 
     89 H89        25.1015   -1.8730   -5.8125 H         1 UNK         0.3093 
     90 H90        22.8580    0.2002   -7.5968 H         1 UNK         0.0818 
     91 H91        21.6443   -1.8409   -8.3096 H         1 UNK         0.0819 
     92 H92        23.0646   -1.6072   -9.3132 H         1 UNK         0.0819 
     93 H93        23.0851   -2.8257   -8.0462 H         1 UNK         0.0819 
     94 H94        22.2891   -1.9506   -5.8468 H         1 UNK         0.3041 
     95 H95        21.6112    0.0298   -3.2488 H         1 UNK         0.0784 
     96 H96        20.6291   -1.9317   -4.4392 H         1 UNK         0.0793 
     97 H97        22.0305   -2.9174   -4.0122 H         1 UNK         0.0793 
     98 H98        20.9572   -2.3093   -2.7622 H         1 UNK         0.0793 
     99 H99        23.1028   -0.4112   -1.6733 H         1 UNK         0.3024 
    100 H100       25.2511   -0.7099   -0.8833 H         1 UNK         0.1171 
    101 H101       23.6259   -2.4120   -0.0020 H         1 UNK         0.0786 
    102 H102       24.6055   -3.7146   -0.6626 H         1 UNK         0.0786 
    103 H103       25.2302   -2.7101    0.6446 H         1 UNK         0.0786 
    104 H104       26.6671   -2.7676   -2.4221 H         1 UNK         0.2977 
    105 H105       26.2796    0.7011   -5.2941 H         1 UNK         0.3127 
    106 H106       28.6383    2.2726   -5.3864 H         1 UNK         0.0770 
    107 H107       25.7297    3.0639   -4.8203 H         1 UNK         0.0814 
    108 H108       27.1385    4.0533   -4.4566 H         1 UNK         0.0814 
    109 H109       26.9142    2.5202   -3.6303 H         1 UNK         0.0814 
    110 H110       26.1034    1.8875   -7.7544 H         1 UNK         0.2983 
    111 H111       27.0102    4.2918   -9.2946 H         1 UNK         0.0947 
    112 H112       24.8799    3.9813  -10.5459 H         1 UNK         0.0806 
    113 H113       24.5719    4.2206   -8.8336 H         1 UNK         0.0806 
    114 H114       24.4575    2.6067   -9.5325 H         1 UNK         0.0806 
    115 H115       26.3030    0.7693   -9.5277 H         1 UNK         0.3000 
    116 H116       27.0664    0.5547  -12.2681 H         1 UNK         0.0850 
    117 H117       26.7486   -1.8836  -11.8655 H         1 UNK         0.0810 
    118 H118       25.4257   -0.9592  -11.1715 H         1 UNK         0.0810 
    119 H119       26.6884   -1.6104  -10.1293 H         1 UNK         0.0810 
    120 H120       28.8841    0.0037   -9.2453 H         1 UNK         0.3040 
    121 H121       31.2997   -0.7819  -10.8432 H         1 UNK         0.0766 
    122 H122       30.5617   -1.6897   -8.0149 H         1 UNK         0.0812 
    123 H123       31.9261   -2.2179   -8.9960 H         1 UNK         0.0812 
    124 H124       30.2952   -2.6474   -9.4709 H         1 UNK         0.0812 
    125 H125       30.1121    0.9051   -7.9212 H         1 UNK         0.3205 
    126 H126       30.8117    2.6200   -6.7184 H         1 UNK         0.0754 
    127 H127       31.9660    4.5131   -7.8082 H         1 UNK         0.0769 
    128 H128       30.7241    3.8709   -8.8697 H         1 UNK         0.0769 
    129 H129       32.4223    3.5015   -9.1717 H         1 UNK         0.0769 
    130 H130       31.9778    0.3766   -6.0121 H         1 UNK         0.2981 
    131 H131       34.8189    0.3764   -5.9714 H         1 UNK         0.0541 
    132 H132       33.1998    2.6714   -4.2656 H         1 UNK         0.3459 
    133 H133       34.2262    2.7184   -2.8546 H         1 UNK         0.3459 
    134 H134       32.8223   -1.3167   -4.3853 H         1 UNK         0.0612 
    135 H135       34.5427   -1.6314   -4.4760 H         1 UNK         0.0612 
    136 H136       33.6216   -4.4899   -6.8472 H         1 UNK         0.0624 
    137 H137       34.3329   -4.0001   -5.3310 H         1 UNK         0.0624 
@<TRIPOS>BOND
     1    1    2 1    
     2    1   72 1    
     3    1   73 1    
     4    1   74 1    
     5    2    3 2    
     6    2    4 am   BACKBONE|DICT|INTERRES
     7    4    5 1    
     8    4   75 1    
     9    5    6 1    
    10    5   35 1    
    11    5   76 1    
    12    6    7 1    
    13    6   77 1    
    14    6   78 1    
    15    7    8 1    
    16    8    9 1    
    17    8   79 1    
    18    8   80 1    
    19    9   10 ar   
    20    9   14 ar   
    21   10   11 ar   
    22   10   81 1    
    23   11   12 ar   
    24   11   71 1    
    25   12   13 ar   
    26   12   82 1    
    27   13   14 ar   
    28   13   15 1    
    29   14   83 1    
    30   15   16 1    
    31   15   84 1    
    32   15   85 1    
    33   16   17 1    
    34   17   18 1    
    35   17   86 1    
    36   17   87 1    
    37   18   19 1    
    38   18   37 1    
    39   18   88 1    
    40   19   20 am   BACKBONE|DICT|INTERRES
    41   19   89 1    
    42   20   21 2    
    43   20   22 1    
    44   22   23 1    
    45   22   24 1    
    46   22   90 1    
    47   23   91 1    
    48   23   92 1    
    49   23   93 1    
    50   24   25 am   BACKBONE|DICT|INTERRES
    51   24   94 1    
    52   25   26 2    
    53   25   27 1    
    54   27   28 1    
    55   27   29 1    
    56   27   95 1    
    57   28   96 1    
    58   28   97 1    
    59   28   98 1    
    60   29   30 am   BACKBONE|DICT|INTERRES
    61   29   99 1    
    62   30   31 2    
    63   30   32 1    
    64   32   33 1    
    65   32   34 1    
    66   32  100 1    
    67   33  101 1    
    68   33  102 1    
    69   33  103 1    
    70   34   35 am   BACKBONE|DICT|INTERRES
    71   34  104 1    
    72   35   36 2    
    73   37   38 2    
    74   37   39 am   BACKBONE|DICT|INTERRES
    75   39   40 1    
    76   39  105 1    
    77   40   41 1    
    78   40   42 1    
    79   40  106 1    
    80   41  107 1    
    81   41  108 1    
    82   41  109 1    
    83   42   43 2    
    84   42   44 am   BACKBONE|DICT|INTERRES
    85   44   45 1    
    86   44  110 1    
    87   45   46 1    
    88   45   47 1    
    89   45  111 1    
    90   46  112 1    
    91   46  113 1    
    92   46  114 1    
    93   47   48 2    
    94   47   49 am   BACKBONE|DICT|INTERRES
    95   49   50 1    
    96   49  115 1    
    97   50   51 1    
    98   50   52 1    
    99   50  116 1    
   100   51  117 1    
   101   51  118 1    
   102   51  119 1    
   103   52   53 2    
   104   52   54 am   BACKBONE|DICT|INTERRES
   105   54   55 1    
   106   54  120 1    
   107   55   56 1    
   108   55   57 1    
   109   55  121 1    
   110   56  122 1    
   111   56  123 1    
   112   56  124 1    
   113   57   58 2    
   114   57   59 am   BACKBONE|DICT|INTERRES
   115   59   60 1    
   116   59  125 1    
   117   60   61 1    
   118   60   62 1    
   119   60  126 1    
   120   61  127 1    
   121   61  128 1    
   122   61  129 1    
   123   62   63 2    
   124   62   64 am   BACKBONE|DICT|INTERRES
   125   64   65 1    
   126   64  130 1    
   127   65   66 1    
   128   65   69 1    
   129   65  131 1    
   130   66   67 am   BACKBONE|DICT|INTERRES
   131   66   68 2    
   132   67  132 1    
   133   67  133 1    
   134   69   70 1    
   135   69  134 1    
   136   69  135 1    
   137   70   71 1    
   138   71  136 1    
   139   71  137 1    
@<TRIPOS>SUBSTRUCTURE
     1 UNK         1 GROUP             0       ****    0 ROOT    
