@<TRIPOS>MOLECULE
3R137
137   139    1
SMALL
USER_CHARGES


@<TRIPOS>ATOM
      1 CA         27.9508   -1.0875    1.3925 C.3       0 UNK        -0.2020 
      2 C          27.2367   -2.4270    1.5553 C.2       0 UNK         0.4855 
      3 O          26.8225   -2.7586    2.6639 O.2       0 UNK        -0.5197 
      4 N          27.0573   -3.2272    0.4941 N.am      1 UNK        -0.4892 
      5 CA         27.4815   -2.9716   -0.8920 C.3       1 UNK         0.0835 
      6 C6         27.9457   -4.2655   -1.6059 C.3       12 UNK        -0.0855 
      7 S7         29.5564   -4.8005   -0.9309 S.3       12 UNK        -0.2931 
      8 C8         30.5996   -4.9449   -2.4267 C.3       12 UNK         0.0378 
      9 C9         30.7330   -3.6862   -3.2892 C.ar      12 UNK        -0.0802 
     10 C10        31.0257   -3.8438   -4.6460 C.ar      12 UNK        -0.0944 
     11 C11        31.1807   -2.7357   -5.4823 C.ar      12 UNK        -0.0787 
     12 C12        30.9924   -1.4501   -4.9648 C.ar      12 UNK        -0.0862 
     13 C13        30.6989   -1.2686   -3.6097 C.ar      12 UNK        -0.0733 
     14 C14        30.6046   -2.3896   -2.7737 C.ar      12 UNK        -0.0832 
     15 C15        30.5220    0.1369   -3.0409 C.3       12 UNK         0.0240 
     16 S16        28.9259    0.3302   -2.1798 S.3       12 UNK        -0.2522 
     17 C17        27.9865    1.5576   -3.1536 C.3       12 UNK        -0.0967 
     18 CA         27.8060    1.2706   -4.6676 C.3       5 UNK         0.0660 
     19 N          27.3098   -0.0749   -4.9690 N.am      5 UNK        -0.4015 
     20 C          27.2586   -0.5992   -6.2042 C.2       4 UNK         0.4946 
     21 O          27.6393   -0.0077   -7.2174 O.2       4 UNK        -0.5353 
     22 CA         26.6590   -2.0052   -6.3428 C.3       4 UNK         0.0277 
     23 CB         27.7006   -3.0791   -5.9978 C.3       4 UNK        -0.1981 
     24 N          25.4887   -2.1692   -5.4816 N.am      4 UNK        -0.4209 
     25 C          24.2293   -1.9052   -5.8533 C.2       3 UNK         0.4942 
     26 O          23.9134   -1.5386   -6.9845 O.2       3 UNK        -0.5208 
     27 CA         23.1248   -2.0735   -4.7927 C.3       3 UNK         0.0250 
     28 CB         22.4953   -3.4724   -4.8932 C.3       3 UNK        -0.1990 
     29 N          23.5679   -1.8422   -3.4148 N.am      3 UNK        -0.4232 
     30 C          24.0215   -0.6711   -2.9495 C.2       2 UNK         0.4993 
     31 O          24.1536    0.3400   -3.6371 O.2       2 UNK        -0.5286 
     32 CA         24.4642   -0.6348   -1.4799 C.3       2 UNK         0.0209 
     33 CB         23.2447   -0.5745   -0.5460 C.3       2 UNK        -0.1931 
     34 N          25.3611   -1.7169   -1.0497 N.am      2 UNK        -0.4546 
     35 C          26.4377   -2.1800   -1.7056 C.2       1 UNK         0.5154 
     36 O          26.6614   -1.9564   -2.8950 O.2       1 UNK        -0.5181 
     37 C          26.9219    2.3606   -5.3097 C.2       5 UNK         0.5014 
     38 O          27.4592    3.2710   -5.9408 O.2       5 UNK        -0.5248 
     39 N          25.5900    2.2437   -5.1723 N.am      6 UNK        -0.4434 
     40 CA         24.6160    3.1853   -5.7409 C.3       6 UNK         0.0363 
     41 CB         23.2278    2.9368   -5.1305 C.3       6 UNK        -0.1936 
     42 C          24.5389    3.1299   -7.2756 C.2       6 UNK         0.5081 
     43 O          24.2294    4.1442   -7.9008 O.2       6 UNK        -0.5248 
     44 N          24.8473    1.9631   -7.8581 N.am      7 UNK        -0.4718 
     45 CA         24.9890    1.7707   -9.3040 C.3       7 UNK         0.0273 
     46 CB         24.8581    0.2734   -9.6268 C.3       7 UNK        -0.1935 
     47 C          26.3149    2.3248   -9.8592 C.2       7 UNK         0.5018 
     48 O          26.4534    2.4126  -11.0799 O.2       7 UNK        -0.5186 
     49 N          27.2575    2.6699   -8.9668 N.am      8 UNK        -0.4240 
     50 CA         28.6217    3.1311   -9.2355 C.3       8 UNK         0.0235 
     51 CB         28.6132    4.5198   -9.9099 C.3       8 UNK        -0.2000 
     52 C          29.4477    2.0829  -10.0029 C.2       8 UNK         0.4941 
     53 O          30.1423    2.4270  -10.9624 O.2       8 UNK        -0.5273 
     54 N          29.3433    0.8155   -9.5747 N.am      9 UNK        -0.4262 
     55 CA         30.0928   -0.3103  -10.1346 C.3       9 UNK         0.0264 
     56 CB         29.5444   -1.6199   -9.5490 C.3       9 UNK        -0.1955 
     57 C          31.6068   -0.1627   -9.8917 C.2       9 UNK         0.5031 
     58 O          32.0178    0.2957   -8.8215 O.2       9 UNK        -0.5390 
     59 N          32.4078   -0.5458  -10.8935 N.am      10 UNK        -0.4204 
     60 CA         33.8520   -0.3023  -10.9804 C.3       10 UNK         0.0237 
     61 CB         34.2708   -0.3615  -12.4626 C.3       10 UNK        -0.1985 
     62 C          34.7106   -1.2215  -10.0856 C.2       10 UNK         0.4970 
     63 O          35.6524   -1.8478  -10.5760 O.2       10 UNK        -0.4914 
     64 N          34.3904   -1.2706   -8.7889 N.am      11 UNK        -0.4285 
     65 CA         35.1883   -1.9527   -7.7549 C.3       11 UNK         0.1007 
     66 C          36.3737   -1.1014   -7.2125 C.2       11 UNK         0.5703 
     67 N          36.4952    0.1758   -7.5570 N.am      11 UNK        -0.7361 
     68 O          37.2112   -1.6154   -6.4745 O.2       11 UNK        -0.4986 
     69 C69        34.3035   -2.4828   -6.5986 C.3       12 UNK        -0.0947 
     70 S70        33.1421   -3.7696   -7.1629 S.3       12 UNK        -0.2240 
     71 C71        31.5408   -2.9356   -6.9475 C.3       12 UNK         0.0194 
     72 H72        27.4881   -0.4798    0.6156 H         1 UNK         0.0906 
     73 H73        27.9104   -0.5182    2.3210 H         1 UNK         0.0906 
     74 H74        29.0007   -1.2388    1.1429 H         1 UNK         0.0906 
     75 H75        26.5932   -4.1131    0.6406 H         1 UNK         0.3140 
     76 H76        28.3417   -2.3048   -0.8723 H         1 UNK         0.1085 
     77 H77        27.2149   -5.0664   -1.4827 H         1 UNK         0.0836 
     78 H78        28.0496   -4.1162   -2.6822 H         1 UNK         0.0836 
     79 H79        31.5989   -5.2548   -2.1186 H         1 UNK         0.0731 
     80 H80        30.1993   -5.7612   -3.0303 H         1 UNK         0.0731 
     81 H81        31.1538   -4.8366   -5.0559 H         1 UNK         0.1312 
     82 H82        31.0895   -0.5911   -5.6152 H         1 UNK         0.1406 
     83 H83        30.4221   -2.2446   -1.7196 H         1 UNK         0.1631 
     84 H84        30.6287    0.8965   -3.8155 H         1 UNK         0.0717 
     85 H85        31.3237    0.3229   -2.3253 H         1 UNK         0.0717 
     86 H86        27.0103    1.6477   -2.6727 H         1 UNK         0.0934 
     87 H87        28.4732    2.5253   -3.0157 H         1 UNK         0.0934 
     88 H88        28.7868    1.3494   -5.1399 H         1 UNK         0.0739 
     89 H89        27.0311   -0.6498   -4.1772 H         1 UNK         0.3093 
     90 H90        26.3673   -2.1455   -7.3860 H         1 UNK         0.0818 
     91 H91        28.0974   -2.9552   -4.9893 H         1 UNK         0.0819 
     92 H92        27.2798   -4.0816   -6.0722 H         1 UNK         0.0819 
     93 H93        28.5417   -3.0308   -6.6876 H         1 UNK         0.0819 
     94 H94        25.6771   -2.3826   -4.5067 H         1 UNK         0.3041 
     95 H95        22.3516   -1.3349   -5.0156 H         1 UNK         0.0784 
     96 H96        23.2141   -4.2568   -4.6525 H         1 UNK         0.0793 
     97 H97        22.1300   -3.6641   -5.9033 H         1 UNK         0.0793 
     98 H98        21.6449   -3.5754   -4.2189 H         1 UNK         0.0793 
     99 H99        23.5279   -2.6265   -2.7801 H         1 UNK         0.3024 
    100 H100       25.0243    0.2943   -1.3530 H         1 UNK         0.1171 
    101 H101       23.5427   -0.3803    0.4845 H         1 UNK         0.0786 
    102 H102       22.5652    0.2273   -0.8395 H         1 UNK         0.0786 
    103 H103       22.6767   -1.5055   -0.5608 H         1 UNK         0.0786 
    104 H104       25.2645   -2.0090   -0.0876 H         1 UNK         0.2977 
    105 H105       25.2015    1.4707   -4.6316 H         1 UNK         0.3127 
    106 H106       24.9296    4.1947   -5.4661 H         1 UNK         0.0770 
    107 H107       22.8477    1.9464   -5.3844 H         1 UNK         0.0814 
    108 H108       22.5042    3.6667   -5.4962 H         1 UNK         0.0814 
    109 H109       23.2505    3.0192   -4.0438 H         1 UNK         0.0814 
    110 H110       25.0798    1.1747   -7.2702 H         1 UNK         0.2983 
    111 H111       24.1793    2.3015   -9.8096 H         1 UNK         0.0947 
    112 H112       24.9453    0.0933  -10.6991 H         1 UNK         0.0806 
    113 H113       23.8891   -0.1154   -9.3138 H         1 UNK         0.0806 
    114 H114       25.6321   -0.3157   -9.1337 H         1 UNK         0.0806 
    115 H115       27.0361    2.5522   -7.9854 H         1 UNK         0.3000 
    116 H116       29.1027    3.2411   -8.2623 H         1 UNK         0.0850 
    117 H117       29.6256    4.9154   -9.9998 H         1 UNK         0.0810 
    118 H118       28.0355    5.2382   -9.3284 H         1 UNK         0.0810 
    119 H119       28.1896    4.4818  -10.9139 H         1 UNK         0.0810 
    120 H120       28.7568    0.6158   -8.7685 H         1 UNK         0.3040 
    121 H121       29.9173   -0.3196  -11.2125 H         1 UNK         0.0766 
    122 H122       29.5279   -1.5924   -8.4605 H         1 UNK         0.0812 
    123 H123       30.1447   -2.4777   -9.8549 H         1 UNK         0.0812 
    124 H124       28.5230   -1.8012   -9.8844 H         1 UNK         0.0812 
    125 H125       31.9832   -0.9593  -11.7116 H         1 UNK         0.3205 
    126 H126       34.0374    0.7172  -10.6352 H         1 UNK         0.0754 
    127 H127       33.7064    0.3516  -13.0641 H         1 UNK         0.0769 
    128 H128       34.1173   -1.3549  -12.8863 H         1 UNK         0.0769 
    129 H129       35.3265   -0.1141  -12.5836 H         1 UNK         0.0769 
    130 H130       33.5921   -0.7248   -8.4761 H         1 UNK         0.2981 
    131 H131       35.6579   -2.8245   -8.2146 H         1 UNK         0.0541 
    132 H132       35.8153    0.6125   -8.1576 H         1 UNK         0.3459 
    133 H133       37.2728    0.7098   -7.2019 H         1 UNK         0.3459 
    134 H134       33.7627   -1.6625   -6.1242 H         1 UNK         0.0612 
    135 H135       34.9162   -2.9339   -5.8160 H         1 UNK         0.0612 
    136 H136       30.7689   -3.5352   -7.4302 H         1 UNK         0.0624 
    137 H137       31.5772   -1.9810   -7.4696 H         1 UNK         0.0624 
@<TRIPOS>BOND
     1    1    2 1    
     2    1   72 1    
     3    1   73 1    
     4    1   74 1    
     5    2    3 2    
     6    2    4 am   BACKBONE|DICT|INTERRES
     7    4    5 1    
     8    4   75 1    
     9    5    6 1    
    10    5   35 1    
    11    5   76 1    
    12    6    7 1    
    13    6   77 1    
    14    6   78 1    
    15    7    8 1    
    16    8    9 1    
    17    8   79 1    
    18    8   80 1    
    19    9   10 ar   
    20    9   14 ar   
    21   10   11 ar   
    22   10   81 1    
    23   11   12 ar   
    24   11   71 1    
    25   12   13 ar   
    26   12   82 1    
    27   13   14 ar   
    28   13   15 1    
    29   14   83 1    
    30   15   16 1    
    31   15   84 1    
    32   15   85 1    
    33   16   17 1    
    34   17   18 1    
    35   17   86 1    
    36   17   87 1    
    37   18   19 1    
    38   18   37 1    
    39   18   88 1    
    40   19   20 am   BACKBONE|DICT|INTERRES
    41   19   89 1    
    42   20   21 2    
    43   20   22 1    
    44   22   23 1    
    45   22   24 1    
    46   22   90 1    
    47   23   91 1    
    48   23   92 1    
    49   23   93 1    
    50   24   25 am   BACKBONE|DICT|INTERRES
    51   24   94 1    
    52   25   26 2    
    53   25   27 1    
    54   27   28 1    
    55   27   29 1    
    56   27   95 1    
    57   28   96 1    
    58   28   97 1    
    59   28   98 1    
    60   29   30 am   BACKBONE|DICT|INTERRES
    61   29   99 1    
    62   30   31 2    
    63   30   32 1    
    64   32   33 1    
    65   32   34 1    
    66   32  100 1    
    67   33  101 1    
    68   33  102 1    
    69   33  103 1    
    70   34   35 am   BACKBONE|DICT|INTERRES
    71   34  104 1    
    72   35   36 2    
    73   37   38 2    
    74   37   39 am   BACKBONE|DICT|INTERRES
    75   39   40 1    
    76   39  105 1    
    77   40   41 1    
    78   40   42 1    
    79   40  106 1    
    80   41  107 1    
    81   41  108 1    
    82   41  109 1    
    83   42   43 2    
    84   42   44 am   BACKBONE|DICT|INTERRES
    85   44   45 1    
    86   44  110 1    
    87   45   46 1    
    88   45   47 1    
    89   45  111 1    
    90   46  112 1    
    91   46  113 1    
    92   46  114 1    
    93   47   48 2    
    94   47   49 am   BACKBONE|DICT|INTERRES
    95   49   50 1    
    96   49  115 1    
    97   50   51 1    
    98   50   52 1    
    99   50  116 1    
   100   51  117 1    
   101   51  118 1    
   102   51  119 1    
   103   52   53 2    
   104   52   54 am   BACKBONE|DICT|INTERRES
   105   54   55 1    
   106   54  120 1    
   107   55   56 1    
   108   55   57 1    
   109   55  121 1    
   110   56  122 1    
   111   56  123 1    
   112   56  124 1    
   113   57   58 2    
   114   57   59 am   BACKBONE|DICT|INTERRES
   115   59   60 1    
   116   59  125 1    
   117   60   61 1    
   118   60   62 1    
   119   60  126 1    
   120   61  127 1    
   121   61  128 1    
   122   61  129 1    
   123   62   63 2    
   124   62   64 am   BACKBONE|DICT|INTERRES
   125   64   65 1    
   126   64  130 1    
   127   65   66 1    
   128   65   69 1    
   129   65  131 1    
   130   66   67 am   BACKBONE|DICT|INTERRES
   131   66   68 2    
   132   67  132 1    
   133   67  133 1    
   134   69   70 1    
   135   69  134 1    
   136   69  135 1    
   137   70   71 1    
   138   71  136 1    
   139   71  137 1    
@<TRIPOS>SUBSTRUCTURE
     1 UNK         1 GROUP             0       ****    0 ROOT    
