@<TRIPOS>MOLECULE
3R137
137   139    1
SMALL
USER_CHARGES


@<TRIPOS>ATOM
      1 CA         25.4713   -4.9604   -3.6806 C.3       0 UNK        -0.2020 
      2 C          25.8869   -3.9533   -2.6199 C.2       0 UNK         0.4855 
      3 O          25.0463   -3.5044   -1.8410 O.2       0 UNK        -0.5197 
      4 N          27.1785   -3.6027   -2.5767 N.am      1 UNK        -0.4892 
      5 CA         27.7458   -2.6336   -1.6318 C.3       1 UNK         0.0835 
      6 C6         29.2919   -2.6995   -1.5738 C.3       12 UNK        -0.0855 
      7 S7         29.8611   -4.3223   -0.9571 S.3       12 UNK        -0.2931 
      8 C8         31.6063   -4.3600   -1.5021 C.3       12 UNK         0.0378 
      9 C9         31.8240   -4.3684   -3.0160 C.ar      12 UNK        -0.0802 
     10 C10        33.0475   -3.9181   -3.5222 C.ar      12 UNK        -0.0944 
     11 C11        33.2821   -3.8784   -4.8995 C.ar      12 UNK        -0.0787 
     12 C12        32.2754   -4.2854   -5.7798 C.ar      12 UNK        -0.0862 
     13 C13        31.0497   -4.7473   -5.2926 C.ar      12 UNK        -0.0733 
     14 C14        30.8448   -4.8166   -3.9113 C.ar      12 UNK        -0.0832 
     15 C15        29.9435   -5.1472   -6.2649 C.3       12 UNK         0.0240 
     16 S16        28.3338   -4.3785   -5.8709 S.3       12 UNK        -0.2522 
     17 C17        28.7616   -2.6067   -5.7938 C.3       12 UNK        -0.0967 
     18 CA         27.9233   -1.7428   -6.7582 C.3       5 UNK         0.0660 
     19 N          26.4772   -1.8407   -6.5275 N.am      5 UNK        -0.4015 
     20 C          25.5591   -1.4091   -7.4041 C.2       4 UNK         0.4946 
     21 O          25.8399   -0.8807   -8.4792 O.2       4 UNK        -0.5353 
     22 CA         24.0778   -1.5627   -7.0206 C.3       4 UNK         0.0277 
     23 CB         23.5891   -2.9893   -7.3183 C.3       4 UNK        -0.1981 
     24 N          23.7637   -1.2097   -5.6324 N.am      4 UNK        -0.4209 
     25 C          24.0090   -0.0219   -5.0608 C.2       3 UNK         0.4942 
     26 O          24.6163    0.8919   -5.6188 O.2       3 UNK        -0.5208 
     27 CA         23.5253    0.1879   -3.6206 C.3       3 UNK         0.0250 
     28 CB         22.5976   -0.9220   -3.0789 C.3       3 UNK        -0.1990 
     29 N          24.7179    0.3002   -2.7968 N.am      3 UNK        -0.4232 
     30 C          24.8445    0.9157   -1.6209 C.2       2 UNK         0.4993 
     31 O          23.9146    1.4795   -1.0407 O.2       2 UNK        -0.5286 
     32 CA         26.2565    0.8807   -0.9913 C.3       2 UNK         0.0209 
     33 CB         26.2903    1.5012    0.4184 C.3       2 UNK        -0.1931 
     34 N          26.8343   -0.4694   -0.9263 N.am      2 UNK        -0.4546 
     35 C          27.2552   -1.2104   -1.9620 C.2       1 UNK         0.5154 
     36 O          27.2348   -0.8219   -3.1360 O.2       1 UNK        -0.5181 
     37 C          28.3987   -0.2800   -6.7270 C.2       5 UNK         0.5014 
     38 O          29.1530    0.1257   -7.6109 O.2       5 UNK        -0.5248 
     39 N          27.9281    0.5015   -5.7460 N.am      6 UNK        -0.4434 
     40 CA         28.1985    1.9376   -5.6432 C.3       6 UNK         0.0363 
     41 CB         27.6657    2.4691   -4.3064 C.3       6 UNK        -0.1936 
     42 C          27.6372    2.7502   -6.8245 C.2       6 UNK         0.5081 
     43 O          28.2517    3.7416   -7.2156 O.2       6 UNK        -0.5248 
     44 N          26.5024    2.3127   -7.3837 N.am      7 UNK        -0.4718 
     45 CA         25.9016    2.8905   -8.5835 C.3       7 UNK         0.0273 
     46 CB         24.4235    2.4745   -8.6721 C.3       7 UNK        -0.1935 
     47 C          26.6621    2.5116   -9.8665 C.2       7 UNK         0.5018 
     48 O          27.0245    3.4040  -10.6341 O.2       7 UNK        -0.5186 
     49 N          26.8548    1.2052  -10.0990 N.am      8 UNK        -0.4240 
     50 CA         27.3697    0.6713  -11.3625 C.3       8 UNK         0.0235 
     51 CB         26.8272   -0.7516  -11.5796 C.3       8 UNK        -0.2000 
     52 C          28.9018    0.6784  -11.4584 C.2       8 UNK         0.4941 
     53 O          29.4363    1.1173  -12.4778 O.2       8 UNK        -0.5273 
     54 N          29.5788    0.1586  -10.4271 N.am      9 UNK        -0.4262 
     55 CA         31.0316   -0.0423  -10.4092 C.3       9 UNK         0.0264 
     56 CB         31.3446   -1.3839   -9.7207 C.3       9 UNK        -0.1955 
     57 C          31.7835    1.0980   -9.7064 C.2       9 UNK         0.5031 
     58 O          32.9826    1.2486   -9.9442 O.2       9 UNK        -0.5390 
     59 N          31.0832    1.8506   -8.8438 N.am      10 UNK        -0.4204 
     60 CA         31.6077    2.8643   -7.9203 C.3       10 UNK         0.0237 
     61 CB         32.2221    4.0611   -8.6785 C.3       10 UNK        -0.1985 
     62 C          32.5545    2.2381   -6.8794 C.2       10 UNK         0.4970 
     63 O          33.6399    2.7662   -6.6306 O.2       10 UNK        -0.4914 
     64 N          32.1235    1.1070   -6.3093 N.am      11 UNK        -0.4285 
     65 CA         32.8836    0.2867   -5.3633 C.3       11 UNK         0.1007 
     66 C          31.9576   -0.2268   -4.2301 C.2       11 UNK         0.5703 
     67 N          32.4775   -0.3848   -3.0207 N.am      11 UNK        -0.7361 
     68 O          30.7752   -0.4828   -4.4365 O.2       11 UNK        -0.4986 
     69 C69        33.6110   -0.8546   -6.1210 C.3       12 UNK        -0.0947 
     70 S70        34.9309   -1.6376   -5.1357 S.3       12 UNK        -0.2240 
     71 C71        34.6275   -3.4079   -5.4372 C.3       12 UNK         0.0194 
     72 H72        24.6864   -5.6119   -3.2972 H         1 UNK         0.0906 
     73 H73        25.0879   -4.4459   -4.5602 H         1 UNK         0.0906 
     74 H74        26.3066   -5.5907   -3.9845 H         1 UNK         0.0906 
     75 H75        27.8225   -3.9836   -3.2545 H         1 UNK         0.3140 
     76 H76        27.3664   -2.8939   -0.6407 H         1 UNK         0.1085 
     77 H77        29.7233   -2.4997   -2.5566 H         1 UNK         0.0836 
     78 H78        29.6866   -1.9322   -0.9049 H         1 UNK         0.0836 
     79 H79        32.1179   -3.5029   -1.0611 H         1 UNK         0.0731 
     80 H80        32.0781   -5.2499   -1.0837 H         1 UNK         0.0731 
     81 H81        33.8213   -3.5859   -2.8434 H         1 UNK         0.1312 
     82 H82        32.4464   -4.2397   -6.8468 H         1 UNK         0.1406 
     83 H83        29.9021   -5.1925   -3.5416 H         1 UNK         0.1631 
     84 H84        29.8315   -6.2319   -6.2484 H         1 UNK         0.0717 
     85 H85        30.2114   -4.8778   -7.2878 H         1 UNK         0.0717 
     86 H86        28.6450   -2.2683   -4.7646 H         1 UNK         0.0934 
     87 H87        29.8210   -2.4812   -6.0245 H         1 UNK         0.0934 
     88 H88        28.1137   -2.1120   -7.7688 H         1 UNK         0.0739 
     89 H89        26.1796   -2.2523   -5.6567 H         1 UNK         0.3093 
     90 H90        23.5131   -0.8769   -7.6557 H         1 UNK         0.0818 
     91 H91        22.5145   -3.0830   -7.1604 H         1 UNK         0.0819 
     92 H92        23.7847   -3.2580   -8.3576 H         1 UNK         0.0819 
     93 H93        24.0873   -3.7303   -6.6930 H         1 UNK         0.0819 
     94 H94        23.2617   -1.8993   -5.0921 H         1 UNK         0.3041 
     95 H95        22.9877    1.1380   -3.5997 H         1 UNK         0.0784 
     96 H96        21.7146   -1.0438   -3.7077 H         1 UNK         0.0793 
     97 H97        23.1039   -1.8856   -3.0122 H         1 UNK         0.0793 
     98 H98        22.2402   -0.6755   -2.0788 H         1 UNK         0.0793 
     99 H99        25.5604   -0.1226   -3.1812 H         1 UNK         0.3024 
    100 H100       26.8960    1.4911   -1.6293 H         1 UNK         0.1171 
    101 H101       25.9290    2.5305    0.4027 H         1 UNK         0.0786 
    102 H102       27.3042    1.5249    0.8185 H         1 UNK         0.0786 
    103 H103       25.6646    0.9462    1.1185 H         1 UNK         0.0786 
    104 H104       26.8546   -0.8862   -0.0065 H         1 UNK         0.2977 
    105 H105       27.3847    0.0794   -5.0020 H         1 UNK         0.3127 
    106 H106       29.2822    2.0674   -5.6447 H         1 UNK         0.0770 
    107 H107       26.5943    2.2957   -4.2003 H         1 UNK         0.0814 
    108 H108       27.8358    3.5428   -4.2153 H         1 UNK         0.0814 
    109 H109       28.1774    1.9891   -3.4730 H         1 UNK         0.0814 
    110 H110       26.0124    1.5385   -6.9458 H         1 UNK         0.2983 
    111 H111       25.9341    3.9785   -8.4908 H         1 UNK         0.0947 
    112 H112       23.9480    2.9071   -9.5533 H         1 UNK         0.0806 
    113 H113       23.8651    2.8164   -7.8004 H         1 UNK         0.0806 
    114 H114       24.3071    1.3924   -8.7356 H         1 UNK         0.0806 
    115 H115       26.5150    0.5239   -9.4204 H         1 UNK         0.3000 
    116 H116       26.9889    1.2902  -12.1784 H         1 UNK         0.0850 
    117 H117       27.1585   -1.1544  -12.5377 H         1 UNK         0.0810 
    118 H118       25.7371   -0.7632  -11.5820 H         1 UNK         0.0810 
    119 H119       27.1648   -1.4387  -10.8027 H         1 UNK         0.0810 
    120 H120       29.0783   -0.1094   -9.5858 H         1 UNK         0.3040 
    121 H121       31.4084   -0.0989  -11.4328 H         1 UNK         0.0766 
    122 H122       32.4162   -1.5879   -9.7363 H         1 UNK         0.0812 
    123 H123       30.8506   -2.2137  -10.2262 H         1 UNK         0.0812 
    124 H124       31.0307   -1.3926   -8.6767 H         1 UNK         0.0812 
    125 H125       30.1264    1.5602   -8.6719 H         1 UNK         0.3205 
    126 H126       30.7567    3.2436   -7.3574 H         1 UNK         0.0754 
    127 H127       32.4893    4.8619   -7.9880 H         1 UNK         0.0769 
    128 H128       31.5164    4.4764   -9.3979 H         1 UNK         0.0769 
    129 H129       33.1282    3.7839   -9.2176 H         1 UNK         0.0769 
    130 H130       31.2021    0.7518   -6.5329 H         1 UNK         0.2981 
    131 H131       33.6366    0.9207   -4.8906 H         1 UNK         0.0541 
    132 H132       33.4533   -0.2025   -2.8482 H         1 UNK         0.3459 
    133 H133       31.8870   -0.7179   -2.2776 H         1 UNK         0.3459 
    134 H134       34.0888   -0.4585   -7.0187 H         1 UNK         0.0612 
    135 H135       32.8942   -1.5970   -6.4735 H         1 UNK         0.0612 
    136 H136       34.7098   -3.6028   -6.5077 H         1 UNK         0.0624 
    137 H137       35.4211   -3.9843   -4.9601 H         1 UNK         0.0624 
@<TRIPOS>BOND
     1    1    2 1    
     2    1   72 1    
     3    1   73 1    
     4    1   74 1    
     5    2    3 2    
     6    2    4 am   BACKBONE|DICT|INTERRES
     7    4    5 1    
     8    4   75 1    
     9    5    6 1    
    10    5   35 1    
    11    5   76 1    
    12    6    7 1    
    13    6   77 1    
    14    6   78 1    
    15    7    8 1    
    16    8    9 1    
    17    8   79 1    
    18    8   80 1    
    19    9   10 ar   
    20    9   14 ar   
    21   10   11 ar   
    22   10   81 1    
    23   11   12 ar   
    24   11   71 1    
    25   12   13 ar   
    26   12   82 1    
    27   13   14 ar   
    28   13   15 1    
    29   14   83 1    
    30   15   16 1    
    31   15   84 1    
    32   15   85 1    
    33   16   17 1    
    34   17   18 1    
    35   17   86 1    
    36   17   87 1    
    37   18   19 1    
    38   18   37 1    
    39   18   88 1    
    40   19   20 am   BACKBONE|DICT|INTERRES
    41   19   89 1    
    42   20   21 2    
    43   20   22 1    
    44   22   23 1    
    45   22   24 1    
    46   22   90 1    
    47   23   91 1    
    48   23   92 1    
    49   23   93 1    
    50   24   25 am   BACKBONE|DICT|INTERRES
    51   24   94 1    
    52   25   26 2    
    53   25   27 1    
    54   27   28 1    
    55   27   29 1    
    56   27   95 1    
    57   28   96 1    
    58   28   97 1    
    59   28   98 1    
    60   29   30 am   BACKBONE|DICT|INTERRES
    61   29   99 1    
    62   30   31 2    
    63   30   32 1    
    64   32   33 1    
    65   32   34 1    
    66   32  100 1    
    67   33  101 1    
    68   33  102 1    
    69   33  103 1    
    70   34   35 am   BACKBONE|DICT|INTERRES
    71   34  104 1    
    72   35   36 2    
    73   37   38 2    
    74   37   39 am   BACKBONE|DICT|INTERRES
    75   39   40 1    
    76   39  105 1    
    77   40   41 1    
    78   40   42 1    
    79   40  106 1    
    80   41  107 1    
    81   41  108 1    
    82   41  109 1    
    83   42   43 2    
    84   42   44 am   BACKBONE|DICT|INTERRES
    85   44   45 1    
    86   44  110 1    
    87   45   46 1    
    88   45   47 1    
    89   45  111 1    
    90   46  112 1    
    91   46  113 1    
    92   46  114 1    
    93   47   48 2    
    94   47   49 am   BACKBONE|DICT|INTERRES
    95   49   50 1    
    96   49  115 1    
    97   50   51 1    
    98   50   52 1    
    99   50  116 1    
   100   51  117 1    
   101   51  118 1    
   102   51  119 1    
   103   52   53 2    
   104   52   54 am   BACKBONE|DICT|INTERRES
   105   54   55 1    
   106   54  120 1    
   107   55   56 1    
   108   55   57 1    
   109   55  121 1    
   110   56  122 1    
   111   56  123 1    
   112   56  124 1    
   113   57   58 2    
   114   57   59 am   BACKBONE|DICT|INTERRES
   115   59   60 1    
   116   59  125 1    
   117   60   61 1    
   118   60   62 1    
   119   60  126 1    
   120   61  127 1    
   121   61  128 1    
   122   61  129 1    
   123   62   63 2    
   124   62   64 am   BACKBONE|DICT|INTERRES
   125   64   65 1    
   126   64  130 1    
   127   65   66 1    
   128   65   69 1    
   129   65  131 1    
   130   66   67 am   BACKBONE|DICT|INTERRES
   131   66   68 2    
   132   67  132 1    
   133   67  133 1    
   134   69   70 1    
   135   69  134 1    
   136   69  135 1    
   137   70   71 1    
   138   71  136 1    
   139   71  137 1    
@<TRIPOS>SUBSTRUCTURE
     1 UNK         1 GROUP             0       ****    0 ROOT    
