@<TRIPOS>MOLECULE
3R137
137   139    1
SMALL
USER_CHARGES


@<TRIPOS>ATOM
      1 CA         29.3806   -2.8495    3.1178 C.3       0 UNK        -0.2020 
      2 C          28.9186   -2.5762    1.6942 C.2       0 UNK         0.4855 
      3 O          28.9548   -1.4289    1.2480 O.2       0 UNK        -0.5197 
      4 N          28.4956   -3.6223    0.9743 N.am      1 UNK        -0.4892 
      5 CA         27.9754   -3.5407   -0.3950 C.3       1 UNK         0.0835 
      6 C6         27.9402   -4.9302   -1.0830 C.3       12 UNK        -0.0855 
      7 S7         29.4991   -5.8900   -1.0303 S.3       12 UNK        -0.2931 
      8 C8         30.8061   -4.6811   -1.4601 C.3       12 UNK         0.0378 
      9 C9         30.8223   -4.1718   -2.9043 C.ar      12 UNK        -0.0802 
     10 C10        31.7505   -3.1778   -3.2396 C.ar      12 UNK        -0.0944 
     11 C11        31.8477   -2.6980   -4.5490 C.ar      12 UNK        -0.0787 
     12 C12        30.9777   -3.1949   -5.5202 C.ar      12 UNK        -0.0862 
     13 C13        30.0409   -4.1820   -5.2118 C.ar      12 UNK        -0.0733 
     14 C14        29.9829   -4.6808   -3.9066 C.ar      12 UNK        -0.0832 
     15 C15        29.1401   -4.7286   -6.3165 C.3       12 UNK         0.0240 
     16 S16        27.3921   -4.9361   -5.8347 S.3       12 UNK        -0.2522 
     17 C17        26.9137   -3.2524   -5.3312 C.3       12 UNK        -0.0967 
     18 CA         26.5892   -2.3173   -6.5325 C.3       5 UNK         0.0660 
     19 N          25.2940   -1.6497   -6.3708 N.am      5 UNK        -0.4015 
     20 C          24.6754   -0.9144   -7.3059 C.2       4 UNK         0.4946 
     21 O          25.0996   -0.7523   -8.4493 O.2       4 UNK        -0.5353 
     22 CA         23.3839   -0.2009   -6.8727 C.3       4 UNK         0.0277 
     23 CB         22.1800   -1.1517   -6.9672 C.3       4 UNK        -0.1981 
     24 N          23.4743    0.3522   -5.5179 N.am      4 UNK        -0.4209 
     25 C          24.2968    1.3520   -5.1677 C.2       3 UNK         0.4942 
     26 O          25.0257    1.9469   -5.9594 O.2       3 UNK        -0.5208 
     27 CA         24.3532    1.7192   -3.6755 C.3       3 UNK         0.0250 
     28 CB         23.2316    2.7083   -3.3201 C.3       3 UNK        -0.1990 
     29 N          24.2964    0.5616   -2.7746 N.am      3 UNK        -0.4232 
     30 C          25.1776   -0.4479   -2.7676 C.2       2 UNK         0.4993 
     31 O          26.1125   -0.5565   -3.5667 O.2       2 UNK        -0.5286 
     32 CA         24.9576   -1.5443   -1.7231 C.3       2 UNK         0.0209 
     33 CB         23.8837   -2.5442   -2.1922 C.3       2 UNK        -0.1931 
     34 N          26.2279   -2.2331   -1.5126 N.am      2 UNK        -0.4546 
     35 C          26.5674   -2.9081   -0.4106 C.2       1 UNK         0.5154 
     36 O          25.8077   -3.0706    0.5492 O.2       1 UNK        -0.5181 
     37 C          27.7078   -1.2809   -6.7499 C.2       5 UNK         0.5014 
     38 O          28.4936   -1.4074   -7.6912 O.2       5 UNK        -0.5248 
     39 N          27.7217   -0.2558   -5.8857 N.am      6 UNK        -0.4434 
     40 CA         28.6613    0.8607   -5.9203 C.3       6 UNK         0.0363 
     41 CB         28.4775    1.7340   -4.6711 C.3       6 UNK        -0.1936 
     42 C          28.5709    1.6977   -7.2024 C.2       6 UNK         0.5081 
     43 O          29.6095    2.0995   -7.7262 O.2       6 UNK        -0.5248 
     44 N          27.3469    1.9215   -7.6978 N.am      7 UNK        -0.4718 
     45 CA         27.0797    2.5793   -8.9761 C.3       7 UNK         0.0273 
     46 CB         25.5873    2.9316   -9.0770 C.3       7 UNK        -0.1935 
     47 C          27.5210    1.7290  -10.1774 C.2       7 UNK         0.5018 
     48 O          28.1478    2.2671  -11.0898 O.2       7 UNK        -0.5186 
     49 N          27.2032    0.4253  -10.1544 N.am      8 UNK        -0.4240 
     50 CA         27.5441   -0.5317  -11.2116 C.3       8 UNK         0.0235 
     51 CB         26.8311   -1.8700  -10.9576 C.3       8 UNK        -0.2000 
     52 C          29.0573   -0.7461  -11.3713 C.2       8 UNK         0.4941 
     53 O          29.5524   -0.7326  -12.4991 O.2       8 UNK        -0.5273 
     54 N          29.7647   -0.9285  -10.2482 N.am      9 UNK        -0.4262 
     55 CA         31.2202   -1.1042  -10.2195 C.3       9 UNK         0.0264 
     56 CB         31.6069   -1.8182   -8.9194 C.3       9 UNK        -0.1955 
     57 C          32.0010    0.2154  -10.3372 C.2       9 UNK         0.5031 
     58 O          33.1977    0.1732  -10.6247 O.2       9 UNK        -0.5390 
     59 N          31.3289    1.3458  -10.0760 N.am      10 UNK        -0.4204 
     60 CA         31.8650    2.7083   -9.9852 C.3       10 UNK         0.0237 
     61 CB         32.4591    3.1736  -11.3323 C.3       10 UNK        -0.1985 
     62 C          32.8261    2.9149   -8.7947 C.2       10 UNK         0.4970 
     63 O          33.6391    3.8407   -8.8313 O.2       10 UNK        -0.4914 
     64 N          32.7053    2.0792   -7.7522 N.am      11 UNK        -0.4285 
     65 CA         33.4149    2.2394   -6.4728 C.3       11 UNK         0.1007 
     66 C          32.7525    3.2737   -5.5150 C.2       11 UNK         0.5703 
     67 N          31.5303    3.7294   -5.7735 N.am      11 UNK        -0.7361 
     68 O          33.3689    3.6861   -4.5346 O.2       11 UNK        -0.4986 
     69 C69        33.7105    0.8776   -5.7836 C.3       12 UNK        -0.0947 
     70 S70        32.2303   -0.0358   -5.2330 S.3       12 UNK        -0.2240 
     71 C71        32.9220   -1.6881   -4.9363 C.3       12 UNK         0.0194 
     72 H72        28.7578   -2.3032    3.8264 H         1 UNK         0.0906 
     73 H73        29.3286   -3.9092    3.3673 H         1 UNK         0.0906 
     74 H74        30.4114   -2.5212    3.2464 H         1 UNK         0.0906 
     75 H75        28.4722   -4.5418    1.3917 H         1 UNK         0.3140 
     76 H76        28.6338   -2.8838   -0.9679 H         1 UNK         0.1085 
     77 H77        27.6427   -4.8219   -2.1274 H         1 UNK         0.0836 
     78 H78        27.1710   -5.5554   -0.6245 H         1 UNK         0.0836 
     79 H79        30.7629   -3.8364   -0.7724 H         1 UNK         0.0731 
     80 H80        31.7655   -5.1644   -1.2710 H         1 UNK         0.0731 
     81 H81        32.4209   -2.7951   -2.4819 H         1 UNK         0.1312 
     82 H82        31.0439   -2.8234   -6.5282 H         1 UNK         0.1406 
     83 H83        29.2809   -5.4718   -3.6889 H         1 UNK         0.1631 
     84 H84        29.5296   -5.6974   -6.6314 H         1 UNK         0.0717 
     85 H85        29.1769   -4.0848   -7.1968 H         1 UNK         0.0717 
     86 H86        26.0360   -3.3758   -4.6955 H         1 UNK         0.0934 
     87 H87        27.6737   -2.8400   -4.6638 H         1 UNK         0.0934 
     88 H88        26.5176   -2.9105   -7.4467 H         1 UNK         0.0739 
     89 H89        24.8956   -1.6695   -5.4448 H         1 UNK         0.3093 
     90 H90        23.2187    0.6284   -7.5641 H         1 UNK         0.0818 
     91 H91        21.2469   -0.6328   -6.7470 H         1 UNK         0.0819 
     92 H92        22.0887   -1.5640   -7.9732 H         1 UNK         0.0819 
     93 H93        22.2683   -1.9921   -6.2776 H         1 UNK         0.0819 
     94 H94        22.8976   -0.0702   -4.8051 H         1 UNK         0.3041 
     95 H95        25.3091    2.2170   -3.5012 H         1 UNK         0.0784 
     96 H96        23.2674    3.5866   -3.9666 H         1 UNK         0.0793 
     97 H97        22.2436    2.2604   -3.4338 H         1 UNK         0.0793 
     98 H98        23.3246    3.0620   -2.2932 H         1 UNK         0.0793 
     99 H99        23.5514    0.5613   -2.0922 H         1 UNK         0.3024 
    100 H100       24.6443   -1.0737   -0.7880 H         1 UNK         0.1171 
    101 H101       22.9289   -2.0466   -2.3663 H         1 UNK         0.0786 
    102 H102       23.7084   -3.3172   -1.4438 H         1 UNK         0.0786 
    103 H103       24.1690   -3.0403   -3.1201 H         1 UNK         0.0786 
    104 H104       26.9015   -2.0801   -2.2534 H         1 UNK         0.2977 
    105 H105       27.0542   -0.2633   -5.1161 H         1 UNK         0.3127 
    106 H106       29.6560    0.4262   -5.8947 H         1 UNK         0.0770 
    107 H107       27.4914    2.1971   -4.6459 H         1 UNK         0.0814 
    108 H108       29.2159    2.5353   -4.6432 H         1 UNK         0.0814 
    109 H109       28.5985    1.1502   -3.7585 H         1 UNK         0.0814 
    110 H110       26.5390    1.6329   -7.1528 H         1 UNK         0.2983 
    111 H111       27.6515    3.5097   -9.0010 H         1 UNK         0.0947 
    112 H112       25.3659    3.4324  -10.0203 H         1 UNK         0.0806 
    113 H113       25.2851    3.6038   -8.2737 H         1 UNK         0.0806 
    114 H114       24.9574    2.0430   -9.0215 H         1 UNK         0.0806 
    115 H115       26.6474    0.0684   -9.3817 H         1 UNK         0.3000 
    116 H116       27.1705   -0.1252  -12.1538 H         1 UNK         0.0850 
    117 H117       27.0755   -2.5982  -11.7320 H         1 UNK         0.0810 
    118 H118       25.7479   -1.7469  -10.9598 H         1 UNK         0.0810 
    119 H119       27.1149   -2.3037   -9.9980 H         1 UNK         0.0810 
    120 H120       29.2734   -0.9797   -9.3563 H         1 UNK         0.3040 
    121 H121       31.5160   -1.7390  -11.0576 H         1 UNK         0.0766 
    122 H122       32.6807   -2.0064   -8.8749 H         1 UNK         0.0812 
    123 H123       31.1032   -2.7815   -8.8378 H         1 UNK         0.0812 
    124 H124       31.3435   -1.2152   -8.0497 H         1 UNK         0.0812 
    125 H125       30.3543    1.2595   -9.8170 H         1 UNK         0.3205 
    126 H126       31.0034    3.3448   -9.7780 H         1 UNK         0.0754 
    127 H127       32.6926    4.2387  -11.3096 H         1 UNK         0.0769 
    128 H128       31.7558    3.0156  -12.1501 H         1 UNK         0.0769 
    129 H129       33.3817    2.6457  -11.5746 H         1 UNK         0.0769 
    130 H130       31.9664    1.3913   -7.7685 H         1 UNK         0.2981 
    131 H131       34.3938    2.6647   -6.7026 H         1 UNK         0.0541 
    132 H132       31.0055    3.3677   -6.5588 H         1 UNK         0.3459 
    133 H133       31.1186    4.4121   -5.1577 H         1 UNK         0.3459 
    134 H134       34.3594    1.0261   -4.9184 H         1 UNK         0.0612 
    135 H135       34.2728    0.2430   -6.4707 H         1 UNK         0.0612 
    136 H136       33.6848   -1.6204   -4.1605 H         1 UNK         0.0624 
    137 H137       33.4279   -2.0319   -5.8389 H         1 UNK         0.0624 
@<TRIPOS>BOND
     1    1    2 1    
     2    1   72 1    
     3    1   73 1    
     4    1   74 1    
     5    2    3 2    
     6    2    4 am   BACKBONE|DICT|INTERRES
     7    4    5 1    
     8    4   75 1    
     9    5    6 1    
    10    5   35 1    
    11    5   76 1    
    12    6    7 1    
    13    6   77 1    
    14    6   78 1    
    15    7    8 1    
    16    8    9 1    
    17    8   79 1    
    18    8   80 1    
    19    9   10 ar   
    20    9   14 ar   
    21   10   11 ar   
    22   10   81 1    
    23   11   12 ar   
    24   11   71 1    
    25   12   13 ar   
    26   12   82 1    
    27   13   14 ar   
    28   13   15 1    
    29   14   83 1    
    30   15   16 1    
    31   15   84 1    
    32   15   85 1    
    33   16   17 1    
    34   17   18 1    
    35   17   86 1    
    36   17   87 1    
    37   18   19 1    
    38   18   37 1    
    39   18   88 1    
    40   19   20 am   BACKBONE|DICT|INTERRES
    41   19   89 1    
    42   20   21 2    
    43   20   22 1    
    44   22   23 1    
    45   22   24 1    
    46   22   90 1    
    47   23   91 1    
    48   23   92 1    
    49   23   93 1    
    50   24   25 am   BACKBONE|DICT|INTERRES
    51   24   94 1    
    52   25   26 2    
    53   25   27 1    
    54   27   28 1    
    55   27   29 1    
    56   27   95 1    
    57   28   96 1    
    58   28   97 1    
    59   28   98 1    
    60   29   30 am   BACKBONE|DICT|INTERRES
    61   29   99 1    
    62   30   31 2    
    63   30   32 1    
    64   32   33 1    
    65   32   34 1    
    66   32  100 1    
    67   33  101 1    
    68   33  102 1    
    69   33  103 1    
    70   34   35 am   BACKBONE|DICT|INTERRES
    71   34  104 1    
    72   35   36 2    
    73   37   38 2    
    74   37   39 am   BACKBONE|DICT|INTERRES
    75   39   40 1    
    76   39  105 1    
    77   40   41 1    
    78   40   42 1    
    79   40  106 1    
    80   41  107 1    
    81   41  108 1    
    82   41  109 1    
    83   42   43 2    
    84   42   44 am   BACKBONE|DICT|INTERRES
    85   44   45 1    
    86   44  110 1    
    87   45   46 1    
    88   45   47 1    
    89   45  111 1    
    90   46  112 1    
    91   46  113 1    
    92   46  114 1    
    93   47   48 2    
    94   47   49 am   BACKBONE|DICT|INTERRES
    95   49   50 1    
    96   49  115 1    
    97   50   51 1    
    98   50   52 1    
    99   50  116 1    
   100   51  117 1    
   101   51  118 1    
   102   51  119 1    
   103   52   53 2    
   104   52   54 am   BACKBONE|DICT|INTERRES
   105   54   55 1    
   106   54  120 1    
   107   55   56 1    
   108   55   57 1    
   109   55  121 1    
   110   56  122 1    
   111   56  123 1    
   112   56  124 1    
   113   57   58 2    
   114   57   59 am   BACKBONE|DICT|INTERRES
   115   59   60 1    
   116   59  125 1    
   117   60   61 1    
   118   60   62 1    
   119   60  126 1    
   120   61  127 1    
   121   61  128 1    
   122   61  129 1    
   123   62   63 2    
   124   62   64 am   BACKBONE|DICT|INTERRES
   125   64   65 1    
   126   64  130 1    
   127   65   66 1    
   128   65   69 1    
   129   65  131 1    
   130   66   67 am   BACKBONE|DICT|INTERRES
   131   66   68 2    
   132   67  132 1    
   133   67  133 1    
   134   69   70 1    
   135   69  134 1    
   136   69  135 1    
   137   70   71 1    
   138   71  136 1    
   139   71  137 1    
@<TRIPOS>SUBSTRUCTURE
     1 UNK         1 GROUP             0       ****    0 ROOT    
