@<TRIPOS>MOLECULE
3R137
137   139    1
SMALL
USER_CHARGES


@<TRIPOS>ATOM
      1 CA         25.5732   -5.0890   -3.5258 C.3       0 UNK        -0.2020 
      2 C          25.9383   -3.9358   -2.6046 C.2       0 UNK         0.4855 
      3 O          25.0715   -3.4168   -1.9007 O.2       0 UNK        -0.5197 
      4 N          27.2136   -3.5250   -2.5979 N.am      1 UNK        -0.4892 
      5 CA         27.7210   -2.4205   -1.7751 C.3       1 UNK         0.0835 
      6 C6         29.2675   -2.3199   -1.7807 C.3       12 UNK        -0.0855 
      7 S7         30.0454   -3.8309   -1.1123 S.3       12 UNK        -0.2931 
      8 C8         31.7341   -3.7383   -1.8120 C.3       12 UNK         0.0378 
      9 C9         31.8468   -3.9462   -3.3246 C.ar      12 UNK        -0.0802 
     10 C10        33.0221   -3.5420   -3.9681 C.ar      12 UNK        -0.0944 
     11 C11        33.1687   -3.6873   -5.3505 C.ar      12 UNK        -0.0787 
     12 C12        32.1201   -4.2264   -6.0993 C.ar      12 UNK        -0.0862 
     13 C13        30.9392   -4.6364   -5.4754 C.ar      12 UNK        -0.0733 
     14 C14        30.8242   -4.5271   -4.0864 C.ar      12 UNK        -0.0832 
     15 C15        29.7722   -5.1459   -6.3159 C.3       12 UNK         0.0240 
     16 S16        28.2123   -4.2459   -5.9968 S.3       12 UNK        -0.2522 
     17 C17        28.7632   -2.5070   -5.9156 C.3       12 UNK        -0.0967 
     18 CA         27.8761   -1.5333   -6.7143 C.3       5 UNK         0.0660 
     19 N          26.4606   -1.6038   -6.3332 N.am      5 UNK        -0.4015 
     20 C          25.4733   -0.9074   -6.9133 C.2       4 UNK         0.4946 
     21 O          25.6570   -0.0328   -7.7621 O.2       4 UNK        -0.5353 
     22 CA         24.0455   -1.2494   -6.4865 C.3       4 UNK         0.0277 
     23 CB         23.6503   -2.6605   -6.9667 C.3       4 UNK        -0.1981 
     24 N          23.8585   -1.1132   -5.0394 N.am      4 UNK        -0.4209 
     25 C          22.6608   -0.9257   -4.4653 C.2       3 UNK         0.4942 
     26 O          21.6094   -0.8387   -5.1022 O.2       3 UNK        -0.5208 
     27 CA         22.5901   -0.8330   -2.9309 C.3       3 UNK         0.0250 
     28 CB         22.0048   -2.1286   -2.3445 C.3       3 UNK        -0.1990 
     29 N          23.8739   -0.5413   -2.2871 N.am      3 UNK        -0.4232 
     30 C          24.4189    0.6839   -2.2289 C.2       2 UNK         0.4993 
     31 O          23.9189    1.6738   -2.7637 O.2       2 UNK        -0.5286 
     32 CA         25.7268    0.8577   -1.4322 C.3       2 UNK         0.0209 
     33 CB         25.4375    1.4993   -0.0650 C.3       2 UNK        -0.1931 
     34 N          26.4837   -0.3796   -1.2257 N.am      2 UNK        -0.4546 
     35 C          27.0604   -1.0937   -2.1997 C.2       1 UNK         0.5154 
     36 O          27.0411   -0.7671   -3.3902 O.2       1 UNK        -0.5181 
     37 C          28.4684   -0.1161   -6.6268 C.2       5 UNK         0.5014 
     38 O          29.2938    0.2346   -7.4668 O.2       5 UNK        -0.5248 
     39 N          28.0371    0.6828   -5.6429 N.am      6 UNK        -0.4434 
     40 CA         28.4305    2.0866   -5.4782 C.3       6 UNK         0.0363 
     41 CB         27.8399    2.6281   -4.1697 C.3       6 UNK        -0.1936 
     42 C          28.0520    2.9978   -6.6633 C.2       6 UNK         0.5081 
     43 O          28.6844    4.0391   -6.8369 O.2       6 UNK        -0.5248 
     44 N          27.0549    2.5945   -7.4620 N.am      7 UNK        -0.4718 
     45 CA         26.6931    3.2420   -8.7215 C.3       7 UNK         0.0273 
     46 CB         25.1615    3.3306   -8.8301 C.3       7 UNK        -0.1935 
     47 C          27.2784    2.4764   -9.9180 C.2       7 UNK         0.5018 
     48 O          27.8359    3.1037  -10.8186 O.2       7 UNK        -0.5186 
     49 N          27.1272    1.1437   -9.9187 N.am      8 UNK        -0.4240 
     50 CA         27.4707    0.2728  -11.0463 C.3       8 UNK         0.0235 
     51 CB         26.7734   -1.0860  -10.8679 C.3       8 UNK        -0.2000 
     52 C          28.9804    0.0772  -11.2700 C.2       8 UNK         0.4941 
     53 O          29.4085    0.0238  -12.4238 O.2       8 UNK        -0.5273 
     54 N          29.7495   -0.0529  -10.1823 N.am      9 UNK        -0.4262 
     55 CA         31.1855   -0.3539  -10.1912 C.3       9 UNK         0.0264 
     56 CB         31.4011   -1.7119   -9.4969 C.3       9 UNK        -0.1955 
     57 C          32.0269    0.7340   -9.5011 C.2       9 UNK         0.5031 
     58 O          33.2540    0.6388   -9.5254 O.2       9 UNK        -0.5390 
     59 N          31.3739    1.7173   -8.8646 N.am      10 UNK        -0.4204 
     60 CA         31.9106    2.8137   -8.0445 C.3       10 UNK         0.0237 
     61 CB         32.9346    3.6726   -8.8127 C.3       10 UNK        -0.1985 
     62 C          32.4607    2.3667   -6.6771 C.2       10 UNK         0.4970 
     63 O          32.2604    3.0813   -5.6949 O.2       10 UNK        -0.4914 
     64 N          33.1206    1.2042   -6.6210 N.am      11 UNK        -0.4285 
     65 CA         33.6278    0.5707   -5.3929 C.3       11 UNK         0.1007 
     66 C          32.5397    0.0083   -4.4336 C.2       11 UNK         0.5703 
     67 N          31.2926   -0.1426   -4.8589 N.am      11 UNK        -0.7361 
     68 O          32.8301   -0.2661   -3.2719 O.2       11 UNK        -0.4986 
     69 C69        34.7406   -0.4681   -5.6948 C.3       12 UNK        -0.0947 
     70 S70        34.2883   -1.7152   -6.9520 S.3       12 UNK        -0.2240 
     71 C71        34.4606   -3.2827   -6.0440 C.3       12 UNK         0.0194 
     72 H72        24.9729   -5.8222   -2.9879 H         1 UNK         0.0906 
     73 H73        24.9897   -4.7254   -4.3707 H         1 UNK         0.0906 
     74 H74        26.4567   -5.5977   -3.9105 H         1 UNK         0.0906 
     75 H75        27.8854   -3.9675   -3.2065 H         1 UNK         0.3140 
     76 H76        27.4142   -2.6318   -0.7479 H         1 UNK         0.1085 
     77 H77        29.6459   -2.1296   -2.7845 H         1 UNK         0.0836 
     78 H78        29.5986   -1.4783   -1.1689 H         1 UNK         0.0836 
     79 H79        32.1605   -2.7693   -1.5463 H         1 UNK         0.0731 
     80 H80        32.3492   -4.4917   -1.3184 H         1 UNK         0.0731 
     81 H81        33.8252   -3.1049   -3.3902 H         1 UNK         0.1312 
     82 H82        32.2237   -4.3131   -7.1724 H         1 UNK         0.1406 
     83 H83        29.9143   -4.8646   -3.6136 H         1 UNK         0.1631 
     84 H84        29.6193   -6.2065   -6.1128 H         1 UNK         0.0717 
     85 H85        30.0005   -5.0644   -7.3798 H         1 UNK         0.0717 
     86 H86        28.7968   -2.2181   -4.8665 H         1 UNK         0.0934 
     87 H87        29.7885   -2.4353   -6.2829 H         1 UNK         0.0934 
     88 H88        27.9294   -1.8289   -7.7633 H         1 UNK         0.0739 
     89 H89        26.2324   -2.3083   -5.6488 H         1 UNK         0.3093 
     90 H90        23.3957   -0.5274   -6.9871 H         1 UNK         0.0818 
     91 H91        22.5894   -2.8527   -6.8065 H         1 UNK         0.0819 
     92 H92        23.8377   -2.7766   -8.0352 H         1 UNK         0.0819 
     93 H93        24.2104   -3.4400   -6.4498 H         1 UNK         0.0819 
     94 H94        24.6859   -1.1081   -4.4574 H         1 UNK         0.3041 
     95 H95        21.8988   -0.0219   -2.6908 H         1 UNK         0.0784 
     96 H96        20.9934   -2.3000   -2.7155 H         1 UNK         0.0793 
     97 H97        22.5982   -3.0016   -2.6165 H         1 UNK         0.0793 
     98 H98        21.9466   -2.0854   -1.2568 H         1 UNK         0.0793 
     99 H99        24.3536   -1.3231   -1.8549 H         1 UNK         0.3024 
    100 H100       26.3546    1.5447   -1.9989 H         1 UNK         0.1171 
    101 H101       24.9030    2.4434   -0.1811 H         1 UNK         0.0786 
    102 H102       26.3591    1.7174    0.4751 H         1 UNK         0.0786 
    103 H103       24.8231    0.8527    0.5629 H         1 UNK         0.0786 
    104 H104       26.5258   -0.7247   -0.2771 H         1 UNK         0.2977 
    105 H105       27.4330    0.2810   -4.9296 H         1 UNK         0.3127 
    106 H106       29.5186    2.1153   -5.3934 H         1 UNK         0.0770 
    107 H107       26.7507    2.5710   -4.1676 H         1 UNK         0.0814 
    108 H108       28.1140    3.6732   -4.0187 H         1 UNK         0.0814 
    109 H109       28.2177    2.0704   -3.3130 H         1 UNK         0.0814 
    110 H110       26.5967    1.7117   -7.2623 H         1 UNK         0.2983 
    111 H111       27.0884    4.2599   -8.7536 H         1 UNK         0.0947 
    112 H112       24.8639    3.8081   -9.7646 H         1 UNK         0.0806 
    113 H113       24.7429    3.9229   -8.0164 H         1 UNK         0.0806 
    114 H114       24.6913    2.3468   -8.8019 H         1 UNK         0.0806 
    115 H115       26.6288    0.7113   -9.1433 H         1 UNK         0.3000 
    116 H116       27.0690    0.7340  -11.9514 H         1 UNK         0.0850 
    117 H117       26.9725   -1.7417  -11.7167 H         1 UNK         0.0810 
    118 H118       25.6918   -0.9701  -10.7951 H         1 UNK         0.0810 
    119 H119       27.1140   -1.6024   -9.9708 H         1 UNK         0.0810 
    120 H120       29.3243    0.0144   -9.2596 H         1 UNK         0.3040 
    121 H121       31.5540   -0.4311  -11.2159 H         1 UNK         0.0766 
    122 H122       32.4507   -2.0069   -9.5310 H         1 UNK         0.0812 
    123 H123       30.8284   -2.5019   -9.9826 H         1 UNK         0.0812 
    124 H124       31.1071   -1.6810   -8.4469 H         1 UNK         0.0812 
    125 H125       30.3671    1.6282   -8.8318 H         1 UNK         0.3205 
    126 H126       31.0547    3.4551   -7.8341 H         1 UNK         0.0754 
    127 H127       33.2068    4.5568   -8.2350 H         1 UNK         0.0769 
    128 H128       32.5280    4.0187   -9.7630 H         1 UNK         0.0769 
    129 H129       33.8565    3.1284   -9.0190 H         1 UNK         0.0769 
    130 H130       33.2716    0.6947   -7.4851 H         1 UNK         0.2981 
    131 H131       34.1079    1.3666   -4.8203 H         1 UNK         0.0541 
    132 H132       31.0447    0.0880   -5.8082 H         1 UNK         0.3459 
    133 H133       30.6024   -0.4815   -4.2124 H         1 UNK         0.3459 
    134 H134       35.0718   -0.9586   -4.7780 H         1 UNK         0.0612 
    135 H135       35.6195    0.0559   -6.0728 H         1 UNK         0.0612 
    136 H136       34.7378   -4.0616   -6.7557 H         1 UNK         0.0624 
    137 H137       35.2865   -3.2199   -5.3340 H         1 UNK         0.0624 
@<TRIPOS>BOND
     1    1    2 1    
     2    1   72 1    
     3    1   73 1    
     4    1   74 1    
     5    2    3 2    
     6    2    4 am   BACKBONE|DICT|INTERRES
     7    4    5 1    
     8    4   75 1    
     9    5    6 1    
    10    5   35 1    
    11    5   76 1    
    12    6    7 1    
    13    6   77 1    
    14    6   78 1    
    15    7    8 1    
    16    8    9 1    
    17    8   79 1    
    18    8   80 1    
    19    9   10 ar   
    20    9   14 ar   
    21   10   11 ar   
    22   10   81 1    
    23   11   12 ar   
    24   11   71 1    
    25   12   13 ar   
    26   12   82 1    
    27   13   14 ar   
    28   13   15 1    
    29   14   83 1    
    30   15   16 1    
    31   15   84 1    
    32   15   85 1    
    33   16   17 1    
    34   17   18 1    
    35   17   86 1    
    36   17   87 1    
    37   18   19 1    
    38   18   37 1    
    39   18   88 1    
    40   19   20 am   BACKBONE|DICT|INTERRES
    41   19   89 1    
    42   20   21 2    
    43   20   22 1    
    44   22   23 1    
    45   22   24 1    
    46   22   90 1    
    47   23   91 1    
    48   23   92 1    
    49   23   93 1    
    50   24   25 am   BACKBONE|DICT|INTERRES
    51   24   94 1    
    52   25   26 2    
    53   25   27 1    
    54   27   28 1    
    55   27   29 1    
    56   27   95 1    
    57   28   96 1    
    58   28   97 1    
    59   28   98 1    
    60   29   30 am   BACKBONE|DICT|INTERRES
    61   29   99 1    
    62   30   31 2    
    63   30   32 1    
    64   32   33 1    
    65   32   34 1    
    66   32  100 1    
    67   33  101 1    
    68   33  102 1    
    69   33  103 1    
    70   34   35 am   BACKBONE|DICT|INTERRES
    71   34  104 1    
    72   35   36 2    
    73   37   38 2    
    74   37   39 am   BACKBONE|DICT|INTERRES
    75   39   40 1    
    76   39  105 1    
    77   40   41 1    
    78   40   42 1    
    79   40  106 1    
    80   41  107 1    
    81   41  108 1    
    82   41  109 1    
    83   42   43 2    
    84   42   44 am   BACKBONE|DICT|INTERRES
    85   44   45 1    
    86   44  110 1    
    87   45   46 1    
    88   45   47 1    
    89   45  111 1    
    90   46  112 1    
    91   46  113 1    
    92   46  114 1    
    93   47   48 2    
    94   47   49 am   BACKBONE|DICT|INTERRES
    95   49   50 1    
    96   49  115 1    
    97   50   51 1    
    98   50   52 1    
    99   50  116 1    
   100   51  117 1    
   101   51  118 1    
   102   51  119 1    
   103   52   53 2    
   104   52   54 am   BACKBONE|DICT|INTERRES
   105   54   55 1    
   106   54  120 1    
   107   55   56 1    
   108   55   57 1    
   109   55  121 1    
   110   56  122 1    
   111   56  123 1    
   112   56  124 1    
   113   57   58 2    
   114   57   59 am   BACKBONE|DICT|INTERRES
   115   59   60 1    
   116   59  125 1    
   117   60   61 1    
   118   60   62 1    
   119   60  126 1    
   120   61  127 1    
   121   61  128 1    
   122   61  129 1    
   123   62   63 2    
   124   62   64 am   BACKBONE|DICT|INTERRES
   125   64   65 1    
   126   64  130 1    
   127   65   66 1    
   128   65   69 1    
   129   65  131 1    
   130   66   67 am   BACKBONE|DICT|INTERRES
   131   66   68 2    
   132   67  132 1    
   133   67  133 1    
   134   69   70 1    
   135   69  134 1    
   136   69  135 1    
   137   70   71 1    
   138   71  136 1    
   139   71  137 1    
@<TRIPOS>SUBSTRUCTURE
     1 UNK         1 GROUP             0       ****    0 ROOT    
