@<TRIPOS>MOLECULE
3R137
137   139    1
SMALL
USER_CHARGES


@<TRIPOS>ATOM
      1 CA         28.0027    0.7434    3.4785 C.3       0 UNK        -0.2020 
      2 C          28.0602   -0.3248    2.3965 C.2       0 UNK         0.4855 
      3 O          28.1846   -1.5068    2.7165 O.2       0 UNK        -0.5197 
      4 N          27.9728    0.0883    1.1234 N.am      1 UNK        -0.4892 
      5 CA         27.9828   -0.7659   -0.0733 C.3       1 UNK         0.0835 
      6 C6         29.3400   -1.4938   -0.2816 C.3       12 UNK        -0.0855 
      7 S7         29.6942   -1.7824   -2.0473 S.3       12 UNK        -0.2931 
      8 C8         29.8971   -3.5919   -2.0820 C.3       12 UNK         0.0378 
      9 C9         30.2215   -4.0616   -3.4910 C.ar      12 UNK        -0.0802 
     10 C10        31.4739   -3.7783   -4.0447 C.ar      12 UNK        -0.0944 
     11 C11        31.7558   -4.1166   -5.3705 C.ar      12 UNK        -0.0787 
     12 C12        30.7961   -4.7904   -6.1272 C.ar      12 UNK        -0.0862 
     13 C13        29.5369   -5.0686   -5.5888 C.ar      12 UNK        -0.0733 
     14 C14        29.2578   -4.7193   -4.2632 C.ar      12 UNK        -0.0832 
     15 C15        28.4476   -5.6369   -6.4871 C.3       12 UNK         0.0240 
     16 S16        27.3251   -4.3463   -7.1456 S.3       12 UNK        -0.2522 
     17 C17        28.3266   -2.8138   -7.0744 C.3       12 UNK        -0.0967 
     18 CA         27.6604   -1.5726   -7.7080 C.3       5 UNK         0.0660 
     19 N          26.2560   -1.4375   -7.3072 N.am      5 UNK        -0.4015 
     20 C          25.4089   -0.4459   -7.6175 C.2       4 UNK         0.4946 
     21 O          25.7168    0.5234   -8.3122 O.2       4 UNK        -0.5353 
     22 CA         23.9852   -0.5295   -7.0379 C.3       4 UNK         0.0277 
     23 CB         22.9856   -0.9048   -8.1436 C.3       4 UNK        -0.1981 
     24 N          23.8458   -1.4688   -5.9167 N.am      4 UNK        -0.4209 
     25 C          24.4260   -1.3244   -4.7173 C.2       3 UNK         0.4942 
     26 O          25.1579   -0.3778   -4.4127 O.2       3 UNK        -0.5208 
     27 CA         24.1957   -2.4581   -3.7146 C.3       3 UNK         0.0250 
     28 CB         25.1802   -3.6163   -3.9686 C.3       3 UNK        -0.1990 
     29 N          24.3899   -1.9308   -2.3692 N.am      3 UNK        -0.4232 
     30 C          23.8746   -2.4407   -1.2446 C.2       2 UNK         0.4993 
     31 O          23.1422   -3.4322   -1.2216 O.2       2 UNK        -0.5286 
     32 CA         24.2314   -1.7156    0.0714 C.3       2 UNK         0.0209 
     33 CB         24.0687   -2.6185    1.3137 C.3       2 UNK        -0.1931 
     34 N          25.5624   -1.0877    0.0613 N.am      2 UNK        -0.4546 
     35 C          26.7474   -1.6956   -0.1203 C.2       1 UNK         0.5154 
     36 O          26.8775   -2.9081   -0.2995 O.2       1 UNK        -0.5181 
     37 C          28.5169   -0.3300   -7.3867 C.2       5 UNK         0.5014 
     38 O          29.4424   -0.0236   -8.1386 O.2       5 UNK        -0.5248 
     39 N          28.1755    0.3852   -6.3048 N.am      6 UNK        -0.4434 
     40 CA         28.8031    1.6459   -5.9045 C.3       6 UNK         0.0363 
     41 CB         28.2323    2.0825   -4.5465 C.3       6 UNK        -0.1936 
     42 C          28.6624    2.7731   -6.9471 C.2       6 UNK         0.5081 
     43 O          29.5065    3.6678   -6.9772 O.2       6 UNK        -0.5248 
     44 N          27.6247    2.7015   -7.7916 N.am      7 UNK        -0.4718 
     45 CA         27.4210    3.5828   -8.9392 C.3       7 UNK         0.0273 
     46 CB         25.9695    4.0912   -8.9396 C.3       7 UNK        -0.1935 
     47 C          27.7367    2.8497  -10.2511 C.2       7 UNK         0.5018 
     48 O          28.4391    3.4056  -11.0948 O.2       7 UNK        -0.5186 
     49 N          27.2130    1.6241  -10.4053 N.am      8 UNK        -0.4240 
     50 CA         27.2681    0.8413  -11.6436 C.3       8 UNK         0.0235 
     51 CB         26.2772   -0.3310  -11.5541 C.3       8 UNK        -0.2000 
     52 C          28.6729    0.3387  -12.0147 C.2       8 UNK         0.4941 
     53 O          29.0199    0.3586  -13.1963 O.2       8 UNK        -0.5273 
     54 N          29.4500   -0.0973  -11.0149 N.am      9 UNK        -0.4262 
     55 CA         30.8321   -0.5642  -11.1707 C.3       9 UNK         0.0264 
     56 CB         30.9733   -1.9370  -10.4881 C.3       9 UNK        -0.1955 
     57 C          31.8473    0.4407  -10.5952 C.2       9 UNK         0.5031 
     58 O          33.0505    0.2175  -10.7350 O.2       9 UNK        -0.5390 
     59 N          31.3520    1.5154   -9.9610 N.am      10 UNK        -0.4204 
     60 CA         32.0919    2.5745   -9.2663 C.3       10 UNK         0.0237 
     61 CB         32.9349    3.4023  -10.2606 C.3       10 UNK        -0.1985 
     62 C          32.9074    2.0608   -8.0612 C.2       10 UNK         0.4970 
     63 O          33.9701    2.6124   -7.7667 O.2       10 UNK        -0.4914 
     64 N          32.4058    1.0153   -7.3889 N.am      11 UNK        -0.4285 
     65 CA         33.0192    0.4260   -6.1889 C.3       11 UNK         0.1007 
     66 C          33.0056    1.3787   -4.9597 C.2       11 UNK         0.5703 
     67 N          33.9445    1.2080   -4.0384 N.am      11 UNK        -0.7361 
     68 O          32.1449    2.2435   -4.8135 O.2       11 UNK        -0.4986 
     69 C69        32.3778   -0.9410   -5.8437 C.3       12 UNK        -0.0947 
     70 S70        32.7933   -2.2191   -7.0783 S.3       12 UNK        -0.2240 
     71 C71        33.0591   -3.6806   -6.0200 C.3       12 UNK         0.0194 
     72 H72        27.8988    1.7447    3.0609 H         1 UNK         0.0906 
     73 H73        27.1552    0.5623    4.1391 H         1 UNK         0.0906 
     74 H74        28.9126    0.7194    4.0777 H         1 UNK         0.0906 
     75 H75        27.8770    1.0786    0.9416 H         1 UNK         0.3140 
     76 H76        27.8543   -0.0731   -0.9073 H         1 UNK         0.1085 
     77 H77        30.1546   -0.8754    0.0985 H         1 UNK         0.0836 
     78 H78        29.3903   -2.4231    0.2893 H         1 UNK         0.0836 
     79 H79        30.7006   -3.8841   -1.4043 H         1 UNK         0.0731 
     80 H80        28.9862   -4.0674   -1.7145 H         1 UNK         0.0731 
     81 H81        32.2066   -3.2418   -3.4575 H         1 UNK         0.1312 
     82 H82        31.0037   -5.0254   -7.1624 H         1 UNK         0.1406 
     83 H83        28.2742   -4.9087   -3.8549 H         1 UNK         0.1631 
     84 H84        27.8596   -6.3732   -5.9373 H         1 UNK         0.0717 
     85 H85        28.8942   -6.1722   -7.3265 H         1 UNK         0.0717 
     86 H86        29.2837   -2.9996   -7.5655 H         1 UNK         0.0934 
     87 H87        28.5505   -2.6159   -6.0237 H         1 UNK         0.0934 
     88 H88        27.6670   -1.7013   -8.7911 H         1 UNK         0.0739 
     89 H89        25.8980   -2.2029   -6.7555 H         1 UNK         0.3093 
     90 H90        23.7328    0.4678   -6.6714 H         1 UNK         0.0818 
     91 H91        21.9590   -0.8781   -7.7778 H         1 UNK         0.0819 
     92 H92        23.0466   -0.2054   -8.9790 H         1 UNK         0.0819 
     93 H93        23.1768   -1.9026   -8.5408 H         1 UNK         0.0819 
     94 H94        23.2668   -2.2808   -6.0807 H         1 UNK         0.3041 
     95 H95        23.1682   -2.8139   -3.8175 H         1 UNK         0.0784 
     96 H96        25.0407   -4.0443   -4.9618 H         1 UNK         0.0793 
     97 H97        26.2173   -3.2853   -3.8951 H         1 UNK         0.0793 
     98 H98        25.0388   -4.4234   -3.2495 H         1 UNK         0.0793 
     99 H99        24.9453   -1.0852   -2.3312 H         1 UNK         0.3024 
    100 H100       23.5087   -0.9029    0.1628 H         1 UNK         0.1171 
    101 H101       24.3095   -2.0797    2.2302 H         1 UNK         0.0786 
    102 H102       24.7135   -3.4965    1.2623 H         1 UNK         0.0786 
    103 H103       23.0422   -2.9745    1.4094 H         1 UNK         0.0786 
    104 H104       25.5709   -0.0885    0.2150 H         1 UNK         0.2977 
    105 H105       27.3926    0.0723   -5.7459 H         1 UNK         0.3127 
    106 H106       29.8687    1.4512   -5.7825 H         1 UNK         0.0770 
    107 H107       27.1567    2.2567   -4.5977 H         1 UNK         0.0814 
    108 H108       28.7000    3.0081   -4.2080 H         1 UNK         0.0814 
    109 H109       28.4160    1.3296   -3.7794 H         1 UNK         0.0814 
    110 H110       26.9843    1.9178   -7.7109 H         1 UNK         0.2983 
    111 H111       28.0810    4.4512   -8.8782 H         1 UNK         0.0947 
    112 H112       25.7838    4.7422   -9.7950 H         1 UNK         0.0806 
    113 H113       25.7553    4.6693   -8.0406 H         1 UNK         0.0806 
    114 H114       25.2499    3.2728   -8.9884 H         1 UNK         0.0806 
    115 H115       26.6369    1.2435   -9.6553 H         1 UNK         0.3000 
    116 H116       26.9366    1.4942  -12.4542 H         1 UNK         0.0850 
    117 H117       26.2653   -0.9040  -12.4823 H         1 UNK         0.0810 
    118 H118       25.2606    0.0220  -11.3789 H         1 UNK         0.0810 
    119 H119       26.5328   -1.0199  -10.7495 H         1 UNK         0.0810 
    120 H120       29.1049   -0.0689  -10.0605 H         1 UNK         0.3040 
    121 H121       31.0762   -0.6890  -12.2275 H         1 UNK         0.0766 
    122 H122       31.9795   -2.3374  -10.6194 H         1 UNK         0.0812 
    123 H123       30.7881   -1.8799   -9.4158 H         1 UNK         0.0812 
    124 H124       30.2786   -2.6632  -10.9099 H         1 UNK         0.0812 
    125 H125       30.3464    1.5795   -9.8966 H         1 UNK         0.3205 
    126 H126       31.3375    3.2430   -8.8514 H         1 UNK         0.0754 
    127 H127       33.3648    4.2788   -9.7743 H         1 UNK         0.0769 
    128 H128       32.3273    3.7608  -11.0916 H         1 UNK         0.0769 
    129 H129       33.7608    2.8223  -10.6734 H         1 UNK         0.0769 
    130 H130       31.5241    0.6163   -7.6858 H         1 UNK         0.2981 
    131 H131       34.0698    0.2499   -6.4297 H         1 UNK         0.0541 
    132 H132       34.6538    0.4989   -4.1392 H         1 UNK         0.3459 
    133 H133       33.9472    1.8072   -3.2281 H         1 UNK         0.3459 
    134 H134       31.2919   -0.8586   -5.7681 H         1 UNK         0.0612 
    135 H135       32.7253   -1.2840   -4.8681 H         1 UNK         0.0612 
    136 H136       33.4551   -4.4938   -6.6298 H         1 UNK         0.0624 
    137 H137       33.8184   -3.4591   -5.2684 H         1 UNK         0.0624 
@<TRIPOS>BOND
     1    1    2 1    
     2    1   72 1    
     3    1   73 1    
     4    1   74 1    
     5    2    3 2    
     6    2    4 am   BACKBONE|DICT|INTERRES
     7    4    5 1    
     8    4   75 1    
     9    5    6 1    
    10    5   35 1    
    11    5   76 1    
    12    6    7 1    
    13    6   77 1    
    14    6   78 1    
    15    7    8 1    
    16    8    9 1    
    17    8   79 1    
    18    8   80 1    
    19    9   10 ar   
    20    9   14 ar   
    21   10   11 ar   
    22   10   81 1    
    23   11   12 ar   
    24   11   71 1    
    25   12   13 ar   
    26   12   82 1    
    27   13   14 ar   
    28   13   15 1    
    29   14   83 1    
    30   15   16 1    
    31   15   84 1    
    32   15   85 1    
    33   16   17 1    
    34   17   18 1    
    35   17   86 1    
    36   17   87 1    
    37   18   19 1    
    38   18   37 1    
    39   18   88 1    
    40   19   20 am   BACKBONE|DICT|INTERRES
    41   19   89 1    
    42   20   21 2    
    43   20   22 1    
    44   22   23 1    
    45   22   24 1    
    46   22   90 1    
    47   23   91 1    
    48   23   92 1    
    49   23   93 1    
    50   24   25 am   BACKBONE|DICT|INTERRES
    51   24   94 1    
    52   25   26 2    
    53   25   27 1    
    54   27   28 1    
    55   27   29 1    
    56   27   95 1    
    57   28   96 1    
    58   28   97 1    
    59   28   98 1    
    60   29   30 am   BACKBONE|DICT|INTERRES
    61   29   99 1    
    62   30   31 2    
    63   30   32 1    
    64   32   33 1    
    65   32   34 1    
    66   32  100 1    
    67   33  101 1    
    68   33  102 1    
    69   33  103 1    
    70   34   35 am   BACKBONE|DICT|INTERRES
    71   34  104 1    
    72   35   36 2    
    73   37   38 2    
    74   37   39 am   BACKBONE|DICT|INTERRES
    75   39   40 1    
    76   39  105 1    
    77   40   41 1    
    78   40   42 1    
    79   40  106 1    
    80   41  107 1    
    81   41  108 1    
    82   41  109 1    
    83   42   43 2    
    84   42   44 am   BACKBONE|DICT|INTERRES
    85   44   45 1    
    86   44  110 1    
    87   45   46 1    
    88   45   47 1    
    89   45  111 1    
    90   46  112 1    
    91   46  113 1    
    92   46  114 1    
    93   47   48 2    
    94   47   49 am   BACKBONE|DICT|INTERRES
    95   49   50 1    
    96   49  115 1    
    97   50   51 1    
    98   50   52 1    
    99   50  116 1    
   100   51  117 1    
   101   51  118 1    
   102   51  119 1    
   103   52   53 2    
   104   52   54 am   BACKBONE|DICT|INTERRES
   105   54   55 1    
   106   54  120 1    
   107   55   56 1    
   108   55   57 1    
   109   55  121 1    
   110   56  122 1    
   111   56  123 1    
   112   56  124 1    
   113   57   58 2    
   114   57   59 am   BACKBONE|DICT|INTERRES
   115   59   60 1    
   116   59  125 1    
   117   60   61 1    
   118   60   62 1    
   119   60  126 1    
   120   61  127 1    
   121   61  128 1    
   122   61  129 1    
   123   62   63 2    
   124   62   64 am   BACKBONE|DICT|INTERRES
   125   64   65 1    
   126   64  130 1    
   127   65   66 1    
   128   65   69 1    
   129   65  131 1    
   130   66   67 am   BACKBONE|DICT|INTERRES
   131   66   68 2    
   132   67  132 1    
   133   67  133 1    
   134   69   70 1    
   135   69  134 1    
   136   69  135 1    
   137   70   71 1    
   138   71  136 1    
   139   71  137 1    
@<TRIPOS>SUBSTRUCTURE
     1 UNK         1 GROUP             0       ****    0 ROOT    
