@<TRIPOS>MOLECULE
3R137
137   139    1
SMALL
USER_CHARGES


@<TRIPOS>ATOM
      1 CA         28.2944   -4.9672    1.4224 C.3       0 UNK        -0.2020 
      2 C          27.5383   -4.0368    0.4870 C.2       0 UNK         0.4855 
      3 O          26.9764   -4.4967   -0.5072 O.2       0 UNK        -0.5197 
      4 N          27.5134   -2.7336    0.8018 N.am      1 UNK        -0.4892 
      5 CA         26.8820   -1.6235    0.0629 C.3       1 UNK         0.0835 
      6 C6         27.4433   -1.4235   -1.3733 C.3       12 UNK        -0.0855 
      7 S7         29.1513   -0.7756   -1.3415 S.3       12 UNK        -0.2931 
      8 C8         30.1788   -2.2653   -1.5474 C.3       12 UNK         0.0378 
      9 C9         30.4001   -2.6358   -3.0073 C.ar      12 UNK        -0.0802 
     10 C10        31.4907   -2.1089   -3.7070 C.ar      12 UNK        -0.0944 
     11 C11        31.7464   -2.4926   -5.0283 C.ar      12 UNK        -0.0787 
     12 C12        30.8946   -3.4145   -5.6478 C.ar      12 UNK        -0.0862 
     13 C13        29.8079   -3.9598   -4.9548 C.ar      12 UNK        -0.0733 
     14 C14        29.5618   -3.5597   -3.6371 C.ar      12 UNK        -0.0832 
     15 C15        28.9427   -5.0376   -5.5991 C.3       12 UNK         0.0240 
     16 S16        27.9289   -4.4241   -6.9817 S.3       12 UNK        -0.2522 
     17 C17        26.8277   -3.2323   -6.1459 C.3       12 UNK        -0.0967 
     18 CA         26.6766   -1.8981   -6.9162 C.3       5 UNK         0.0660 
     19 N          25.6361   -1.0677   -6.3138 N.am      5 UNK        -0.4015 
     20 C          25.1408    0.0759   -6.7991 C.2       4 UNK         0.4946 
     21 O          25.5063    0.5650   -7.8700 O.2       4 UNK        -0.5353 
     22 CA         24.0906    0.8105   -5.9296 C.3       4 UNK         0.0277 
     23 CB         23.2027    1.7485   -6.7687 C.3       4 UNK        -0.1981 
     24 N          23.2227   -0.0641   -5.1225 N.am      4 UNK        -0.4209 
     25 C          23.5968   -0.8106   -4.0745 C.2       3 UNK         0.4942 
     26 O          24.7643   -0.8926   -3.6796 O.2       3 UNK        -0.5208 
     27 CA         22.5079   -1.6500   -3.3970 C.3       3 UNK         0.0250 
     28 CB         21.9964   -2.7675   -4.3256 C.3       3 UNK        -0.1990 
     29 N          23.0858   -2.2417   -2.1964 N.am      3 UNK        -0.4232 
     30 C          22.4407   -2.5462   -1.0679 C.2       2 UNK         0.4993 
     31 O          21.2242   -2.4198   -0.9202 O.2       2 UNK        -0.5286 
     32 CA         23.2884   -3.0904    0.0972 C.3       2 UNK         0.0209 
     33 CB         23.0621   -4.6021    0.2661 C.3       2 UNK        -0.1931 
     34 N          24.7302   -2.8425   -0.0305 N.am      2 UNK        -0.4546 
     35 C          25.3353   -1.6541    0.0924 C.2       1 UNK         0.5154 
     36 O          24.7184   -0.6030    0.2701 O.2       1 UNK        -0.5181 
     37 C          28.0054   -1.1288   -7.0421 C.2       5 UNK         0.5014 
     38 O          28.6557   -1.2207   -8.0823 O.2       5 UNK        -0.5248 
     39 N          28.3526   -0.3347   -6.0181 N.am      6 UNK        -0.4434 
     40 CA         29.5458    0.5115   -6.0189 C.3       6 UNK         0.0363 
     41 CB         29.7543    1.1334   -4.6316 C.3       6 UNK        -0.1936 
     42 C          29.5230    1.5998   -7.1020 C.2       6 UNK         0.5081 
     43 O          30.5582    1.8640   -7.7120 O.2       6 UNK        -0.5248 
     44 N          28.3416    2.1837   -7.3472 N.am      7 UNK        -0.4718 
     45 CA         28.1161    3.1662   -8.4085 C.3       7 UNK         0.0273 
     46 CB         26.7846    3.8954   -8.1700 C.3       7 UNK        -0.1935 
     47 C          28.1488    2.5250   -9.8045 C.2       7 UNK         0.5018 
     48 O          28.7092    3.1216  -10.7238 O.2       7 UNK        -0.5186 
     49 N          27.5769    1.3179   -9.9312 N.am      8 UNK        -0.4240 
     50 CA         27.6016    0.5119  -11.1546 C.3       8 UNK         0.0235 
     51 CB         26.6383   -0.6777  -11.0121 C.3       8 UNK        -0.2000 
     52 C          29.0182    0.0343  -11.5206 C.2       8 UNK         0.4941 
     53 O          29.4045    0.1280  -12.6863 O.2       8 UNK        -0.5273 
     54 N          29.7701   -0.4483  -10.5211 N.am      9 UNK        -0.4262 
     55 CA         31.1695   -0.8626  -10.6506 C.3       9 UNK         0.0264 
     56 CB         31.5713   -1.6789   -9.4103 C.3       9 UNK        -0.1955 
     57 C          32.1380    0.3180  -10.8379 C.2       9 UNK         0.5031 
     58 O          33.1901    0.1343  -11.4517 O.2       9 UNK        -0.5390 
     59 N          31.7776    1.4869  -10.2863 N.am      10 UNK        -0.4204 
     60 CA         32.5645    2.7223  -10.1998 C.3       10 UNK         0.0237 
     61 CB         32.8268    3.3187  -11.5993 C.3       10 UNK        -0.1985 
     62 C          33.8440    2.5442   -9.3577 C.2       10 UNK         0.4970 
     63 O          34.8818    3.1245   -9.6837 O.2       10 UNK        -0.4914 
     64 N          33.7485    1.7312   -8.2977 N.am      11 UNK        -0.4285 
     65 CA         34.8377    1.4509   -7.3540 C.3       11 UNK         0.1007 
     66 C          35.0633    2.5954   -6.3253 C.2       11 UNK         0.5703 
     67 N          36.1997    2.5940   -5.6408 N.am      11 UNK        -0.7361 
     68 O          34.2259    3.4755   -6.1307 O.2       11 UNK        -0.4986 
     69 C69        34.6750    0.0559   -6.6907 C.3       12 UNK        -0.0947 
     70 S70        33.1222   -0.1630   -5.7596 S.3       12 UNK        -0.2240 
     71 C71        32.9833   -1.9797   -5.7612 C.3       12 UNK         0.0194 
     72 H72        29.0842   -5.4838    0.8776 H         1 UNK         0.0906 
     73 H73        28.7515   -4.4299    2.2531 H         1 UNK         0.0906 
     74 H74        27.6179   -5.7162    1.8332 H         1 UNK         0.0906 
     75 H75        27.9767   -2.4442    1.6528 H         1 UNK         0.3140 
     76 H76        27.1429   -0.7289    0.6319 H         1 UNK         0.1085 
     77 H77        27.3893   -2.3389   -1.9622 H         1 UNK         0.0836 
     78 H78        26.8454   -0.6883   -1.9156 H         1 UNK         0.0836 
     79 H79        29.7429   -3.1039   -1.0068 H         1 UNK         0.0731 
     80 H80        31.1438   -2.0812   -1.0728 H         1 UNK         0.0731 
     81 H81        32.1556   -1.4118   -3.2153 H         1 UNK         0.1312 
     82 H82        31.0908   -3.7347   -6.6621 H         1 UNK         0.1406 
     83 H83        28.7366   -3.9927   -3.0874 H         1 UNK         0.1631 
     84 H84        28.2867   -5.5025   -4.8613 H         1 UNK         0.0717 
     85 H85        29.5900   -5.8335   -5.9701 H         1 UNK         0.0717 
     86 H86        25.8528   -3.7123   -6.0464 H         1 UNK         0.0934 
     87 H87        27.1700   -3.0469   -5.1269 H         1 UNK         0.0934 
     88 H88        26.3423   -2.1307   -7.9293 H         1 UNK         0.0739 
     89 H89        25.3325   -1.3232   -5.3780 H         1 UNK         0.3093 
     90 H90        24.6591    1.4322   -5.2349 H         1 UNK         0.0818 
     91 H91        22.5035    2.3023   -6.1419 H         1 UNK         0.0819 
     92 H92        23.8002    2.4868   -7.3042 H         1 UNK         0.0819 
     93 H93        22.6258    1.1965   -7.5117 H         1 UNK         0.0819 
     94 H94        22.2518   -0.0922   -5.4003 H         1 UNK         0.3041 
     95 H95        21.6860   -0.9857   -3.1214 H         1 UNK         0.0784 
     96 H96        21.5335   -2.3590   -5.2245 H         1 UNK         0.0793 
     97 H97        22.8043   -3.4280   -4.6435 H         1 UNK         0.0793 
     98 H98        21.2432   -3.3796   -3.8288 H         1 UNK         0.0793 
     99 H99        24.0964   -2.3005   -2.2118 H         1 UNK         0.3024 
    100 H100       22.9403   -2.5874    1.0023 H         1 UNK         0.1171 
    101 H101       23.5835   -4.9859    1.1432 H         1 UNK         0.0786 
    102 H102       22.0027   -4.8284    0.3960 H         1 UNK         0.0786 
    103 H103       23.4114   -5.1605   -0.6034 H         1 UNK         0.0786 
    104 H104       25.3320   -3.6457   -0.1985 H         1 UNK         0.2977 
    105 H105       27.7710   -0.3122   -5.1936 H         1 UNK         0.3127 
    106 H106       30.3892   -0.1419   -6.2373 H         1 UNK         0.0770 
    107 H107       28.8996    1.7336   -4.3182 H         1 UNK         0.0814 
    108 H108       30.6327    1.7804   -4.6236 H         1 UNK         0.0814 
    109 H109       29.9222    0.3625   -3.8821 H         1 UNK         0.0814 
    110 H110       27.5321    1.8758   -6.8289 H         1 UNK         0.2983 
    111 H111       28.9202    3.9045   -8.3643 H         1 UNK         0.0947 
    112 H112       26.6256    4.6680   -8.9235 H         1 UNK         0.0806 
    113 H113       26.7673    4.3849   -7.1962 H         1 UNK         0.0806 
    114 H114       25.9349    3.2147   -8.2204 H         1 UNK         0.0806 
    115 H115       27.0869    0.9275   -9.1320 H         1 UNK         0.3000 
    116 H116       27.2430    1.1413  -11.9719 H         1 UNK         0.0850 
    117 H117       26.5979   -1.2582  -11.9347 H         1 UNK         0.0810 
    118 H118       25.6241   -0.3429  -10.7931 H         1 UNK         0.0810 
    119 H119       26.9452   -1.3547  -10.2149 H         1 UNK         0.0810 
    120 H120       29.3434   -0.5730   -9.6023 H         1 UNK         0.3040 
    121 H121       31.2550   -1.5059  -11.5288 H         1 UNK         0.0766 
    122 H122       31.4835   -1.0896   -8.4963 H         1 UNK         0.0812 
    123 H123       32.6048   -2.0203   -9.4820 H         1 UNK         0.0812 
    124 H124       30.9431   -2.5627   -9.2961 H         1 UNK         0.0812 
    125 H125       30.9279    1.4961   -9.7327 H         1 UNK         0.3205 
    126 H126       31.9433    3.4335   -9.6532 H         1 UNK         0.0754 
    127 H127       33.2836    4.3062  -11.5235 H         1 UNK         0.0769 
    128 H128       31.8982    3.4339  -12.1587 H         1 UNK         0.0769 
    129 H129       33.4991    2.6944  -12.1884 H         1 UNK         0.0769 
    130 H130       32.8383    1.3698   -8.0446 H         1 UNK         0.2981 
    131 H131       35.7563    1.4028   -7.9424 H         1 UNK         0.0541 
    132 H132       36.8961    1.8796   -5.7852 H         1 UNK         0.3459 
    133 H133       36.3642    3.3239   -4.9654 H         1 UNK         0.3459 
    134 H134       35.5110   -0.1560   -6.0223 H         1 UNK         0.0612 
    135 H135       34.7193   -0.7089   -7.4678 H         1 UNK         0.0612 
    136 H136       32.9866   -2.3294   -6.7943 H         1 UNK         0.0624 
    137 H137       33.8703   -2.4022   -5.2874 H         1 UNK         0.0624 
@<TRIPOS>BOND
     1    1    2 1    
     2    1   72 1    
     3    1   73 1    
     4    1   74 1    
     5    2    3 2    
     6    2    4 am   BACKBONE|DICT|INTERRES
     7    4    5 1    
     8    4   75 1    
     9    5    6 1    
    10    5   35 1    
    11    5   76 1    
    12    6    7 1    
    13    6   77 1    
    14    6   78 1    
    15    7    8 1    
    16    8    9 1    
    17    8   79 1    
    18    8   80 1    
    19    9   10 ar   
    20    9   14 ar   
    21   10   11 ar   
    22   10   81 1    
    23   11   12 ar   
    24   11   71 1    
    25   12   13 ar   
    26   12   82 1    
    27   13   14 ar   
    28   13   15 1    
    29   14   83 1    
    30   15   16 1    
    31   15   84 1    
    32   15   85 1    
    33   16   17 1    
    34   17   18 1    
    35   17   86 1    
    36   17   87 1    
    37   18   19 1    
    38   18   37 1    
    39   18   88 1    
    40   19   20 am   BACKBONE|DICT|INTERRES
    41   19   89 1    
    42   20   21 2    
    43   20   22 1    
    44   22   23 1    
    45   22   24 1    
    46   22   90 1    
    47   23   91 1    
    48   23   92 1    
    49   23   93 1    
    50   24   25 am   BACKBONE|DICT|INTERRES
    51   24   94 1    
    52   25   26 2    
    53   25   27 1    
    54   27   28 1    
    55   27   29 1    
    56   27   95 1    
    57   28   96 1    
    58   28   97 1    
    59   28   98 1    
    60   29   30 am   BACKBONE|DICT|INTERRES
    61   29   99 1    
    62   30   31 2    
    63   30   32 1    
    64   32   33 1    
    65   32   34 1    
    66   32  100 1    
    67   33  101 1    
    68   33  102 1    
    69   33  103 1    
    70   34   35 am   BACKBONE|DICT|INTERRES
    71   34  104 1    
    72   35   36 2    
    73   37   38 2    
    74   37   39 am   BACKBONE|DICT|INTERRES
    75   39   40 1    
    76   39  105 1    
    77   40   41 1    
    78   40   42 1    
    79   40  106 1    
    80   41  107 1    
    81   41  108 1    
    82   41  109 1    
    83   42   43 2    
    84   42   44 am   BACKBONE|DICT|INTERRES
    85   44   45 1    
    86   44  110 1    
    87   45   46 1    
    88   45   47 1    
    89   45  111 1    
    90   46  112 1    
    91   46  113 1    
    92   46  114 1    
    93   47   48 2    
    94   47   49 am   BACKBONE|DICT|INTERRES
    95   49   50 1    
    96   49  115 1    
    97   50   51 1    
    98   50   52 1    
    99   50  116 1    
   100   51  117 1    
   101   51  118 1    
   102   51  119 1    
   103   52   53 2    
   104   52   54 am   BACKBONE|DICT|INTERRES
   105   54   55 1    
   106   54  120 1    
   107   55   56 1    
   108   55   57 1    
   109   55  121 1    
   110   56  122 1    
   111   56  123 1    
   112   56  124 1    
   113   57   58 2    
   114   57   59 am   BACKBONE|DICT|INTERRES
   115   59   60 1    
   116   59  125 1    
   117   60   61 1    
   118   60   62 1    
   119   60  126 1    
   120   61  127 1    
   121   61  128 1    
   122   61  129 1    
   123   62   63 2    
   124   62   64 am   BACKBONE|DICT|INTERRES
   125   64   65 1    
   126   64  130 1    
   127   65   66 1    
   128   65   69 1    
   129   65  131 1    
   130   66   67 am   BACKBONE|DICT|INTERRES
   131   66   68 2    
   132   67  132 1    
   133   67  133 1    
   134   69   70 1    
   135   69  134 1    
   136   69  135 1    
   137   70   71 1    
   138   71  136 1    
   139   71  137 1    
@<TRIPOS>SUBSTRUCTURE
     1 UNK         1 GROUP             0       ****    0 ROOT    
