@<TRIPOS>MOLECULE
3R137
137   139    1
SMALL
USER_CHARGES


@<TRIPOS>ATOM
      1 CA         25.1749   -4.9396   -4.1848 C.3       0 UNK        -0.2020 
      2 C          25.4511   -3.8922   -3.1192 C.2       0 UNK         0.4855 
      3 O          24.5353   -3.1844   -2.7003 O.2       0 UNK        -0.5197 
      4 N          26.7084   -3.7978   -2.6706 N.am      1 UNK        -0.4892 
      5 CA         27.1544   -2.9276   -1.5766 C.3       1 UNK         0.0835 
      6 C6         28.6350   -3.1720   -1.1970 C.3       12 UNK        -0.0855 
      7 S7         28.9243   -4.9133   -0.7141 S.3       12 UNK        -0.2931 
      8 C8         30.7173   -5.1273   -0.9949 C.3       12 UNK         0.0378 
      9 C9         31.1647   -4.7494   -2.4031 C.ar      12 UNK        -0.0802 
     10 C10        32.2803   -3.9244   -2.5773 C.ar      12 UNK        -0.0944 
     11 C11        32.6719   -3.5220   -3.8567 C.ar      12 UNK        -0.0787 
     12 C12        31.9366   -3.9431   -4.9677 C.ar      12 UNK        -0.0862 
     13 C13        30.8153   -4.7614   -4.8071 C.ar      12 UNK        -0.0733 
     14 C14        30.4548   -5.1891   -3.5262 C.ar      12 UNK        -0.0832 
     15 C15        29.9643   -5.1397   -6.0116 C.3       12 UNK         0.0240 
     16 S16        28.2867   -4.4299   -5.9048 S.3       12 UNK        -0.2522 
     17 C17        28.6243   -2.6434   -5.7372 C.3       12 UNK        -0.0967 
     18 CA         27.7546   -1.7856   -6.6851 C.3       5 UNK         0.0660 
     19 N          26.3128   -1.9118   -6.4258 N.am      5 UNK        -0.4015 
     20 C          25.3741   -1.5325   -7.3048 C.2       4 UNK         0.4946 
     21 O          25.6339   -1.0344   -8.3990 O.2       4 UNK        -0.5353 
     22 CA         23.8961   -1.7103   -6.9172 C.3       4 UNK         0.0277 
     23 CB         23.3902   -3.1110   -7.2971 C.3       4 UNK        -0.1981 
     24 N          23.5635   -1.4179   -5.5195 N.am      4 UNK        -0.4209 
     25 C          23.7514   -0.2350   -4.9172 C.2       3 UNK         0.4942 
     26 O          24.4046    0.6835   -5.4120 O.2       3 UNK        -0.5208 
     27 CA         23.0763   -0.0200   -3.5522 C.3       3 UNK         0.0250 
     28 CB         21.9258   -1.0028   -3.2503 C.3       3 UNK        -0.1990 
     29 N          24.0861   -0.1061   -2.5026 N.am      3 UNK        -0.4232 
     30 C          24.7387    0.9449   -1.9847 C.2       2 UNK         0.4993 
     31 O          24.4552    2.1161   -2.2402 O.2       2 UNK        -0.5286 
     32 CA         25.8980    0.6694   -1.0045 C.3       2 UNK         0.0209 
     33 CB         25.5489    1.1781    0.4050 C.3       2 UNK        -0.1931 
     34 N          26.2999   -0.7371   -0.9103 N.am      2 UNK        -0.4546 
     35 C          26.8925   -1.4392   -1.8847 C.2       1 UNK         0.5154 
     36 O          27.1928   -0.9688   -2.9854 O.2       1 UNK        -0.5181 
     37 C          28.2005   -0.3100   -6.6720 C.2       5 UNK         0.5014 
     38 O          28.9711    0.0987   -7.5435 O.2       5 UNK        -0.5248 
     39 N          27.6795    0.4757   -5.7186 N.am      6 UNK        -0.4434 
     40 CA         27.8816    1.9239   -5.6553 C.3       6 UNK         0.0363 
     41 CB         27.3560    2.4674   -4.3200 C.3       6 UNK        -0.1936 
     42 C          27.2317    2.6554   -6.8418 C.2       6 UNK         0.5081 
     43 O          27.8674    3.5328   -7.4247 O.2       6 UNK        -0.5248 
     44 N          26.0056    2.2560   -7.2124 N.am      7 UNK        -0.4718 
     45 CA         25.2715    2.7781   -8.3716 C.3       7 UNK         0.0273 
     46 CB         23.8391    2.2229   -8.3711 C.3       7 UNK        -0.1935 
     47 C          25.9674    2.4864   -9.7136 C.2       7 UNK         0.5018 
     48 O          25.9663    3.3470  -10.5942 O.2       7 UNK        -0.5186 
     49 N          26.5831    1.3016   -9.8305 N.am      8 UNK        -0.4240 
     50 CA         27.4252    0.8958  -10.9600 C.3       8 UNK         0.0235 
     51 CB         27.5810   -0.6345  -10.9421 C.3       8 UNK        -0.2000 
     52 C          28.8107    1.5724  -10.9818 C.2       8 UNK         0.4941 
     53 O          29.5280    1.4093  -11.9700 O.2       8 UNK        -0.5273 
     54 N          29.1686    2.2974   -9.9100 N.am      9 UNK        -0.4262 
     55 CA         30.4484    2.9721   -9.6726 C.3       9 UNK         0.0264 
     56 CB         30.6682    4.1207  -10.6809 C.3       9 UNK        -0.1955 
     57 C          31.6313    1.9881   -9.5968 C.2       9 UNK         0.5031 
     58 O          32.6892    2.2465  -10.1767 O.2       9 UNK        -0.5390 
     59 N          31.4297    0.8749   -8.8782 N.am      10 UNK        -0.4204 
     60 CA         32.4596   -0.1200   -8.5743 C.3       10 UNK         0.0237 
     61 CB         31.7646   -1.4353   -8.1721 C.3       10 UNK        -0.1985 
     62 C          33.4239    0.3648   -7.4709 C.2       10 UNK         0.4970 
     63 O          33.2928    1.4835   -6.9661 O.2       10 UNK        -0.4914 
     64 N          34.3567   -0.5197   -7.0979 N.am      11 UNK        -0.4285 
     65 CA         35.3803   -0.3301   -6.0554 C.3       11 UNK         0.1007 
     66 C          36.5300    0.6247   -6.4990 C.2       11 UNK         0.5703 
     67 N          37.4014    1.0367   -5.5869 N.am      11 UNK        -0.7361 
     68 O          36.6741    0.9640   -7.6728 O.2       11 UNK        -0.4986 
     69 C69        34.8073    0.0109   -4.6395 C.3       12 UNK        -0.0947 
     70 S70        33.2839   -0.8758   -4.1624 S.3       12 UNK        -0.2240 
     71 C71        33.8590   -2.5930   -4.0419 C.3       12 UNK         0.0194 
     72 H72        25.7764   -5.8337   -4.0212 H         1 UNK         0.0906 
     73 H73        25.4098   -4.5485   -5.1719 H         1 UNK         0.0906 
     74 H74        24.1257   -5.2338   -4.1713 H         1 UNK         0.0906 
     75 H75        27.4245   -4.3885   -3.0680 H         1 UNK         0.3140 
     76 H76        26.5462   -3.1984   -0.7104 H         1 UNK         0.1085 
     77 H77        28.9300   -2.5365   -0.3596 H         1 UNK         0.0836 
     78 H78        29.2827   -2.8981   -2.0316 H         1 UNK         0.0836 
     79 H79        31.2520   -4.5361   -0.2497 H         1 UNK         0.0731 
     80 H80        30.9816   -6.1691   -0.8097 H         1 UNK         0.0731 
     81 H81        32.8341   -3.5756   -1.7162 H         1 UNK         0.1312 
     82 H82        32.2219   -3.6053   -5.9543 H         1 UNK         0.1406 
     83 H83        29.5872   -5.8224   -3.4007 H         1 UNK         0.1631 
     84 H84        29.8884   -6.2260   -6.0732 H         1 UNK         0.0717 
     85 H85        30.4306   -4.8086   -6.9410 H         1 UNK         0.0717 
     86 H86        28.4755   -2.3599   -4.6956 H         1 UNK         0.0934 
     87 H87        29.6797   -2.4652   -5.9436 H         1 UNK         0.0934 
     88 H88        27.9343   -2.1502   -7.6993 H         1 UNK         0.0739 
     89 H89        26.0359   -2.2792   -5.5287 H         1 UNK         0.3093 
     90 H90        23.3334   -0.9945   -7.5194 H         1 UNK         0.0818 
     91 H91        23.6122   -3.3346   -8.3418 H         1 UNK         0.0819 
     92 H92        23.8497   -3.8923   -6.6947 H         1 UNK         0.0819 
     93 H93        22.3094   -3.1880   -7.1769 H         1 UNK         0.0819 
     94 H94        23.0396   -2.1222   -5.0198 H         1 UNK         0.3041 
     95 H95        22.6431    0.9823   -3.5745 H         1 UNK         0.0784 
     96 H96        21.1672   -0.9725   -4.0337 H         1 UNK         0.0793 
     97 H97        22.2644   -2.0339   -3.1542 H         1 UNK         0.0793 
     98 H98        21.4278   -0.7380   -2.3174 H         1 UNK         0.0793 
     99 H99        24.4005   -1.0410   -2.2691 H         1 UNK         0.3024 
    100 H100       26.7565    1.2373   -1.3692 H         1 UNK         0.1171 
    101 H101       25.2898    2.2378    0.3868 H         1 UNK         0.0786 
    102 H102       24.6979    0.6427    0.8278 H         1 UNK         0.0786 
    103 H103       26.3911    1.0669    1.0884 H         1 UNK         0.0786 
    104 H104       26.0739   -1.2047   -0.0437 H         1 UNK         0.2977 
    105 H105       27.0823    0.0636   -5.0116 H         1 UNK         0.3127 
    106 H106       28.9568    2.1117   -5.6968 H         1 UNK         0.0770 
    107 H107       26.2802    2.3209   -4.2250 H         1 UNK         0.0814 
    108 H108       27.5476    3.5375   -4.2320 H         1 UNK         0.0814 
    109 H109       27.8408    1.9784   -3.4754 H         1 UNK         0.0814 
    110 H110       25.5271    1.5620   -6.6405 H         1 UNK         0.2983 
    111 H111       25.2159    3.8632   -8.2615 H         1 UNK         0.0947 
    112 H112       23.8286    1.1396   -8.4886 H         1 UNK         0.0806 
    113 H113       23.2567    2.6455   -9.1909 H         1 UNK         0.0806 
    114 H114       23.3190    2.4648   -7.4440 H         1 UNK         0.0806 
    115 H115       26.4565    0.6135   -9.0926 H         1 UNK         0.3000 
    116 H116       26.9154    1.1764  -11.8840 H         1 UNK         0.0850 
    117 H117       28.1719   -0.9811  -11.7908 H         1 UNK         0.0810 
    118 H118       26.6129   -1.1325  -10.9984 H         1 UNK         0.0810 
    119 H119       28.0810   -0.9754  -10.0347 H         1 UNK         0.0810 
    120 H120       28.5054    2.3682   -9.1470 H         1 UNK         0.3040 
    121 H121       30.3713    3.4211   -8.6813 H         1 UNK         0.0766 
    122 H122       29.8210    4.8064  -10.6903 H         1 UNK         0.0812 
    123 H123       30.8120    3.7495  -11.6959 H         1 UNK         0.0812 
    124 H124       31.5530    4.7027  -10.4208 H         1 UNK         0.0812 
    125 H125       30.5273    0.7354   -8.4269 H         1 UNK         0.3205 
    126 H126       33.0440   -0.2978   -9.4794 H         1 UNK         0.0754 
    127 H127       32.4689   -2.2667   -8.1380 H         1 UNK         0.0769 
    128 H128       30.9831   -1.7090   -8.8815 H         1 UNK         0.0769 
    129 H129       31.3073   -1.3530   -7.1861 H         1 UNK         0.0769 
    130 H130       34.4108   -1.3962   -7.5943 H         1 UNK         0.2981 
    131 H131       35.8627   -1.3043   -5.9773 H         1 UNK         0.0541 
    132 H132       38.1570    1.6403   -5.8716 H         1 UNK         0.3459 
    133 H133       37.3193    0.7590   -4.6218 H         1 UNK         0.3459 
    134 H134       34.5814    1.0767   -4.5762 H         1 UNK         0.0612 
    135 H135       35.5572   -0.1823   -3.8712 H         1 UNK         0.0612 
    136 H136       34.5606   -2.6868   -3.2116 H         1 UNK         0.0624 
    137 H137       34.4010   -2.8703   -4.9464 H         1 UNK         0.0624 
@<TRIPOS>BOND
     1    1    2 1    
     2    1   72 1    
     3    1   73 1    
     4    1   74 1    
     5    2    3 2    
     6    2    4 am   BACKBONE|DICT|INTERRES
     7    4    5 1    
     8    4   75 1    
     9    5    6 1    
    10    5   35 1    
    11    5   76 1    
    12    6    7 1    
    13    6   77 1    
    14    6   78 1    
    15    7    8 1    
    16    8    9 1    
    17    8   79 1    
    18    8   80 1    
    19    9   10 ar   
    20    9   14 ar   
    21   10   11 ar   
    22   10   81 1    
    23   11   12 ar   
    24   11   71 1    
    25   12   13 ar   
    26   12   82 1    
    27   13   14 ar   
    28   13   15 1    
    29   14   83 1    
    30   15   16 1    
    31   15   84 1    
    32   15   85 1    
    33   16   17 1    
    34   17   18 1    
    35   17   86 1    
    36   17   87 1    
    37   18   19 1    
    38   18   37 1    
    39   18   88 1    
    40   19   20 am   BACKBONE|DICT|INTERRES
    41   19   89 1    
    42   20   21 2    
    43   20   22 1    
    44   22   23 1    
    45   22   24 1    
    46   22   90 1    
    47   23   91 1    
    48   23   92 1    
    49   23   93 1    
    50   24   25 am   BACKBONE|DICT|INTERRES
    51   24   94 1    
    52   25   26 2    
    53   25   27 1    
    54   27   28 1    
    55   27   29 1    
    56   27   95 1    
    57   28   96 1    
    58   28   97 1    
    59   28   98 1    
    60   29   30 am   BACKBONE|DICT|INTERRES
    61   29   99 1    
    62   30   31 2    
    63   30   32 1    
    64   32   33 1    
    65   32   34 1    
    66   32  100 1    
    67   33  101 1    
    68   33  102 1    
    69   33  103 1    
    70   34   35 am   BACKBONE|DICT|INTERRES
    71   34  104 1    
    72   35   36 2    
    73   37   38 2    
    74   37   39 am   BACKBONE|DICT|INTERRES
    75   39   40 1    
    76   39  105 1    
    77   40   41 1    
    78   40   42 1    
    79   40  106 1    
    80   41  107 1    
    81   41  108 1    
    82   41  109 1    
    83   42   43 2    
    84   42   44 am   BACKBONE|DICT|INTERRES
    85   44   45 1    
    86   44  110 1    
    87   45   46 1    
    88   45   47 1    
    89   45  111 1    
    90   46  112 1    
    91   46  113 1    
    92   46  114 1    
    93   47   48 2    
    94   47   49 am   BACKBONE|DICT|INTERRES
    95   49   50 1    
    96   49  115 1    
    97   50   51 1    
    98   50   52 1    
    99   50  116 1    
   100   51  117 1    
   101   51  118 1    
   102   51  119 1    
   103   52   53 2    
   104   52   54 am   BACKBONE|DICT|INTERRES
   105   54   55 1    
   106   54  120 1    
   107   55   56 1    
   108   55   57 1    
   109   55  121 1    
   110   56  122 1    
   111   56  123 1    
   112   56  124 1    
   113   57   58 2    
   114   57   59 am   BACKBONE|DICT|INTERRES
   115   59   60 1    
   116   59  125 1    
   117   60   61 1    
   118   60   62 1    
   119   60  126 1    
   120   61  127 1    
   121   61  128 1    
   122   61  129 1    
   123   62   63 2    
   124   62   64 am   BACKBONE|DICT|INTERRES
   125   64   65 1    
   126   64  130 1    
   127   65   66 1    
   128   65   69 1    
   129   65  131 1    
   130   66   67 am   BACKBONE|DICT|INTERRES
   131   66   68 2    
   132   67  132 1    
   133   67  133 1    
   134   69   70 1    
   135   69  134 1    
   136   69  135 1    
   137   70   71 1    
   138   71  136 1    
   139   71  137 1    
@<TRIPOS>SUBSTRUCTURE
     1 UNK         1 GROUP             0       ****    0 ROOT    
