@<TRIPOS>MOLECULE
3R137
137   139    1
SMALL
USER_CHARGES


@<TRIPOS>ATOM
      1 CA         25.6567   -7.3385   -5.8275 C.3       0 UNK        -0.2020 
      2 C          25.7081   -6.6864   -4.4537 C.2       0 UNK         0.4855 
      3 O          25.0572   -7.1644   -3.5235 O.2       0 UNK        -0.5197 
      4 N          26.4867   -5.6062   -4.3187 N.am      1 UNK        -0.4892 
      5 CA         26.6212   -4.8126   -3.0909 C.3       1 UNK         0.0835 
      6 C6         27.8405   -3.8530   -3.1364 C.3       12 UNK        -0.0855 
      7 S7         29.4015   -4.6209   -3.6987 S.3       12 UNK        -0.2931 
      8 C8         30.0466   -3.3679   -4.8662 C.3       12 UNK         0.0378 
      9 C9         30.8706   -2.2738   -4.1883 C.ar      12 UNK        -0.0802 
     10 C10        32.1498   -1.9626   -4.6635 C.ar      12 UNK        -0.0944 
     11 C11        32.9061   -0.9471   -4.0671 C.ar      12 UNK        -0.0787 
     12 C12        32.3756   -0.2388   -2.9845 C.ar      12 UNK        -0.0862 
     13 C13        31.0964   -0.5311   -2.5058 C.ar      12 UNK        -0.0733 
     14 C14        30.3553   -1.5472   -3.1107 C.ar      12 UNK        -0.0832 
     15 C15        30.5151    0.2425   -1.3317 C.3       12 UNK         0.0240 
     16 S16        29.5447    1.6814   -1.8821 S.3       12 UNK        -0.2522 
     17 C17        28.0093    0.9121   -2.5083 C.3       12 UNK        -0.0967 
     18 CA         27.9383    0.8581   -4.0568 C.3       5 UNK         0.0660 
     19 N          26.9113   -0.0815   -4.5189 N.am      5 UNK        -0.4015 
     20 C          26.7467   -0.4665   -5.7968 C.2       4 UNK         0.4946 
     21 O          27.5481   -0.2020   -6.6940 O.2       4 UNK        -0.5353 
     22 CA         25.4530   -1.2258   -6.1627 C.3       4 UNK         0.0277 
     23 CB         25.7364   -2.7013   -6.4762 C.3       4 UNK        -0.1981 
     24 N          24.4031   -1.1290   -5.1443 N.am      4 UNK        -0.4209 
     25 C          23.7649    0.0107   -4.8338 C.2       3 UNK         0.4942 
     26 O          23.9750    1.0760   -5.4143 O.2       3 UNK        -0.5208 
     27 CA         22.7801   -0.0073   -3.6490 C.3       3 UNK         0.0250 
     28 CB         21.3331   -0.0856   -4.1600 C.3       3 UNK        -0.1990 
     29 N          23.0084   -1.0826   -2.6774 N.am      3 UNK        -0.4232 
     30 C          24.1421   -1.2951   -1.9935 C.2       2 UNK         0.4993 
     31 O          25.1476   -0.5898   -2.1051 O.2       2 UNK        -0.5286 
     32 CA         24.2029   -2.5463   -1.0923 C.3       2 UNK         0.0209 
     33 CB         22.8500   -3.2755   -0.9195 C.3       2 UNK        -0.1931 
     34 N          25.2333   -3.4847   -1.5605 N.am      2 UNK        -0.4546 
     35 C          25.3414   -3.9967   -2.7972 C.2       1 UNK         0.5154 
     36 O          24.5249   -3.7781   -3.6983 O.2       1 UNK        -0.5181 
     37 C          27.7255    2.2627   -4.6623 C.2       5 UNK         0.5014 
     38 O          28.6868    2.8708   -5.1327 O.2       5 UNK        -0.5248 
     39 N          26.4687    2.7364   -4.6873 N.am      6 UNK        -0.4434 
     40 CA         26.0861    4.0255   -5.2739 C.3       6 UNK         0.0363 
     41 CB         24.6696    4.4077   -4.8154 C.3       6 UNK        -0.1936 
     42 C          26.1840    4.0271   -6.8089 C.2       6 UNK         0.5081 
     43 O          26.4930    5.0646   -7.3947 O.2       6 UNK        -0.5248 
     44 N          25.9587    2.8600   -7.4288 N.am      7 UNK        -0.4718 
     45 CA         26.1819    2.6219   -8.8586 C.3       7 UNK         0.0273 
     46 CB         25.4130    1.3602   -9.2835 C.3       7 UNK        -0.1935 
     47 C          27.6732    2.4832   -9.2275 C.2       7 UNK         0.5018 
     48 O          27.9965    2.5412  -10.4143 O.2       7 UNK        -0.5186 
     49 N          28.5381    2.2865   -8.2193 N.am      8 UNK        -0.4240 
     50 CA         29.9803    2.0355   -8.2999 C.3       8 UNK         0.0235 
     51 CB         30.7286    3.2813   -8.8205 C.3       8 UNK        -0.2000 
     52 C          30.3140    0.7534   -9.0857 C.2       8 UNK         0.4941 
     53 O          31.2353    0.7558   -9.9064 O.2       8 UNK        -0.5273 
     54 N          29.5536   -0.3214   -8.8271 N.am      9 UNK        -0.4262 
     55 CA         29.7154   -1.6328   -9.4591 C.3       9 UNK         0.0264 
     56 CB         28.5640   -2.5515   -9.0264 C.3       9 UNK        -0.1955 
     57 C          31.0791   -2.2503   -9.1115 C.2       9 UNK         0.5031 
     58 O          31.2909   -2.6382   -7.9618 O.2       9 UNK        -0.5390 
     59 N          31.9812   -2.2818  -10.1039 N.am      10 UNK        -0.4204 
     60 CA         33.3989   -2.6518   -9.9919 C.3       10 UNK         0.0237 
     61 CB         33.5549   -4.1554   -9.6753 C.3       10 UNK        -0.1985 
     62 C          34.1743   -1.7434   -9.0126 C.2       10 UNK         0.4970 
     63 O          35.0589   -2.2227   -8.3004 O.2       10 UNK        -0.4914 
     64 N          33.8214   -0.4525   -8.9949 N.am      11 UNK        -0.4285 
     65 CA         34.3719    0.5722   -8.1036 C.3       11 UNK         0.1007 
     66 C          34.7015    1.8835   -8.8697 C.2       11 UNK         0.5703 
     67 N          35.1000    2.9332   -8.1644 N.am      11 UNK        -0.7361 
     68 O          34.6233    1.9600  -10.0950 O.2       11 UNK        -0.4986 
     69 C69        33.4430    0.7832   -6.8726 C.3       12 UNK        -0.0947 
     70 S70        34.3813    1.0417   -5.3327 S.3       12 UNK        -0.2240 
     71 C71        34.3004   -0.6165   -4.5831 C.3       12 UNK         0.0194 
     72 H72        26.2841   -6.8176   -6.5506 H         1 UNK         0.0906 
     73 H73        25.9965   -8.3720   -5.7658 H         1 UNK         0.0906 
     74 H74        24.6341   -7.3374   -6.2040 H         1 UNK         0.0906 
     75 H75        27.0156   -5.2724   -5.1104 H         1 UNK         0.3140 
     76 H76        26.7653   -5.5128   -2.2647 H         1 UNK         0.1085 
     77 H77        28.0201   -3.4531   -2.1369 H         1 UNK         0.0836 
     78 H78        27.6231   -2.9909   -3.7689 H         1 UNK         0.0836 
     79 H79        29.2325   -2.9120   -5.4313 H         1 UNK         0.0731 
     80 H80        30.6601   -3.8916   -5.6008 H         1 UNK         0.0731 
     81 H81        32.5543   -2.5049   -5.5080 H         1 UNK         0.1312 
     82 H82        32.9565    0.5485   -2.5235 H         1 UNK         0.1406 
     83 H83        29.3688   -1.7612   -2.7380 H         1 UNK         0.1631 
     84 H84        31.3221    0.5942   -0.6870 H         1 UNK         0.0717 
     85 H85        29.8971   -0.4079   -0.7107 H         1 UNK         0.0717 
     86 H86        27.9233   -0.0906   -2.0890 H         1 UNK         0.0934 
     87 H87        27.1574    1.4591   -2.0991 H         1 UNK         0.0934 
     88 H88        28.8945    0.4874   -4.4327 H         1 UNK         0.0739 
     89 H89        26.2098   -0.3433   -3.8328 H         1 UNK         0.3093 
     90 H90        25.0543   -0.7690   -7.0695 H         1 UNK         0.0818 
     91 H91        26.2930   -2.7991   -7.4056 H         1 UNK         0.0819 
     92 H92        26.3237   -3.1753   -5.6937 H         1 UNK         0.0819 
     93 H93        24.8153   -3.2718   -6.5975 H         1 UNK         0.0819 
     94 H94        24.2044   -1.9722   -4.6129 H         1 UNK         0.3041 
     95 H95        22.9047    0.9391   -3.1187 H         1 UNK         0.0784 
     96 H96        21.1238    0.7204   -4.8653 H         1 UNK         0.0793 
     97 H97        21.1371   -1.0274   -4.6742 H         1 UNK         0.0793 
     98 H98        20.6168    0.0085   -3.3435 H         1 UNK         0.0793 
     99 H99        22.2534   -1.7412   -2.5509 H         1 UNK         0.3024 
    100 H100       24.5175   -2.1908   -0.1095 H         1 UNK         0.1171 
    101 H101       22.9436   -4.1019   -0.2147 H         1 UNK         0.0786 
    102 H102       22.0864   -2.6064   -0.5201 H         1 UNK         0.0786 
    103 H103       22.4772   -3.6903   -1.8569 H         1 UNK         0.0786 
    104 H104       25.9657   -3.6851   -0.8932 H         1 UNK         0.2977 
    105 H105       25.7124    2.1532   -4.3544 H         1 UNK         0.3127 
    106 H106       26.7779    4.7836   -4.8999 H         1 UNK         0.0770 
    107 H107       23.9197    3.7045   -5.1783 H         1 UNK         0.0814 
    108 H108       24.3948    5.3944   -5.1907 H         1 UNK         0.0814 
    109 H109       24.5991    4.4446   -3.7283 H         1 UNK         0.0814 
    110 H110       25.6568    2.0725   -6.8704 H         1 UNK         0.2983 
    111 H111       25.7820    3.4722   -9.4157 H         1 UNK         0.0947 
    112 H112       25.8559    0.4589   -8.8603 H         1 UNK         0.0806 
    113 H113       25.4303    1.2451  -10.3681 H         1 UNK         0.0806 
    114 H114       24.3671    1.4029   -8.9787 H         1 UNK         0.0806 
    115 H115       28.1539    2.2453   -7.2840 H         1 UNK         0.3000 
    116 H116       30.3107    1.8557   -7.2757 H         1 UNK         0.0850 
    117 H117       30.4948    4.1613   -8.2214 H         1 UNK         0.0810 
    118 H118       30.4744    3.5025   -9.8574 H         1 UNK         0.0810 
    119 H119       31.8085    3.1379   -8.7770 H         1 UNK         0.0810 
    120 H120       28.8386   -0.2496   -8.1056 H         1 UNK         0.3040 
    121 H121       29.6480   -1.4941  -10.5401 H         1 UNK         0.0766 
    122 H122       28.6464   -3.5315   -9.4978 H         1 UNK         0.0812 
    123 H123       27.5984   -2.1323   -9.3094 H         1 UNK         0.0812 
    124 H124       28.5653   -2.7066   -7.9469 H         1 UNK         0.0812 
    125 H125       31.7033   -1.9034  -10.9996 H         1 UNK         0.3205 
    126 H126       33.8390   -2.4765  -10.9747 H         1 UNK         0.0754 
    127 H127       34.6010   -4.4598   -9.7279 H         1 UNK         0.0769 
    128 H128       33.0039   -4.7700  -10.3871 H         1 UNK         0.0769 
    129 H129       33.1966   -4.3983   -8.6744 H         1 UNK         0.0769 
    130 H130       33.0877   -0.1218   -9.6139 H         1 UNK         0.2981 
    131 H131       35.3436    0.2141   -7.7589 H         1 UNK         0.0541 
    132 H132       35.3287    3.7909   -8.6415 H         1 UNK         0.3459 
    133 H133       35.1708    2.8781   -7.1596 H         1 UNK         0.3459 
    134 H134       32.7728    1.6314   -7.0171 H         1 UNK         0.0612 
    135 H135       32.7836   -0.0747   -6.7336 H         1 UNK         0.0612 
    136 H136       35.0068   -0.6618   -3.7532 H         1 UNK         0.0624 
    137 H137       34.6347   -1.3557   -5.3133 H         1 UNK         0.0624 
@<TRIPOS>BOND
     1    1    2 1    
     2    1   72 1    
     3    1   73 1    
     4    1   74 1    
     5    2    3 2    
     6    2    4 am   BACKBONE|DICT|INTERRES
     7    4    5 1    
     8    4   75 1    
     9    5    6 1    
    10    5   35 1    
    11    5   76 1    
    12    6    7 1    
    13    6   77 1    
    14    6   78 1    
    15    7    8 1    
    16    8    9 1    
    17    8   79 1    
    18    8   80 1    
    19    9   10 ar   
    20    9   14 ar   
    21   10   11 ar   
    22   10   81 1    
    23   11   12 ar   
    24   11   71 1    
    25   12   13 ar   
    26   12   82 1    
    27   13   14 ar   
    28   13   15 1    
    29   14   83 1    
    30   15   16 1    
    31   15   84 1    
    32   15   85 1    
    33   16   17 1    
    34   17   18 1    
    35   17   86 1    
    36   17   87 1    
    37   18   19 1    
    38   18   37 1    
    39   18   88 1    
    40   19   20 am   BACKBONE|DICT|INTERRES
    41   19   89 1    
    42   20   21 2    
    43   20   22 1    
    44   22   23 1    
    45   22   24 1    
    46   22   90 1    
    47   23   91 1    
    48   23   92 1    
    49   23   93 1    
    50   24   25 am   BACKBONE|DICT|INTERRES
    51   24   94 1    
    52   25   26 2    
    53   25   27 1    
    54   27   28 1    
    55   27   29 1    
    56   27   95 1    
    57   28   96 1    
    58   28   97 1    
    59   28   98 1    
    60   29   30 am   BACKBONE|DICT|INTERRES
    61   29   99 1    
    62   30   31 2    
    63   30   32 1    
    64   32   33 1    
    65   32   34 1    
    66   32  100 1    
    67   33  101 1    
    68   33  102 1    
    69   33  103 1    
    70   34   35 am   BACKBONE|DICT|INTERRES
    71   34  104 1    
    72   35   36 2    
    73   37   38 2    
    74   37   39 am   BACKBONE|DICT|INTERRES
    75   39   40 1    
    76   39  105 1    
    77   40   41 1    
    78   40   42 1    
    79   40  106 1    
    80   41  107 1    
    81   41  108 1    
    82   41  109 1    
    83   42   43 2    
    84   42   44 am   BACKBONE|DICT|INTERRES
    85   44   45 1    
    86   44  110 1    
    87   45   46 1    
    88   45   47 1    
    89   45  111 1    
    90   46  112 1    
    91   46  113 1    
    92   46  114 1    
    93   47   48 2    
    94   47   49 am   BACKBONE|DICT|INTERRES
    95   49   50 1    
    96   49  115 1    
    97   50   51 1    
    98   50   52 1    
    99   50  116 1    
   100   51  117 1    
   101   51  118 1    
   102   51  119 1    
   103   52   53 2    
   104   52   54 am   BACKBONE|DICT|INTERRES
   105   54   55 1    
   106   54  120 1    
   107   55   56 1    
   108   55   57 1    
   109   55  121 1    
   110   56  122 1    
   111   56  123 1    
   112   56  124 1    
   113   57   58 2    
   114   57   59 am   BACKBONE|DICT|INTERRES
   115   59   60 1    
   116   59  125 1    
   117   60   61 1    
   118   60   62 1    
   119   60  126 1    
   120   61  127 1    
   121   61  128 1    
   122   61  129 1    
   123   62   63 2    
   124   62   64 am   BACKBONE|DICT|INTERRES
   125   64   65 1    
   126   64  130 1    
   127   65   66 1    
   128   65   69 1    
   129   65  131 1    
   130   66   67 am   BACKBONE|DICT|INTERRES
   131   66   68 2    
   132   67  132 1    
   133   67  133 1    
   134   69   70 1    
   135   69  134 1    
   136   69  135 1    
   137   70   71 1    
   138   71  136 1    
   139   71  137 1    
@<TRIPOS>SUBSTRUCTURE
     1 UNK         1 GROUP             0       ****    0 ROOT    
