@<TRIPOS>MOLECULE
3R137
137   139    1
SMALL
USER_CHARGES


@<TRIPOS>ATOM
      1 CA         26.6945   -6.2421    0.5290 C.3       0 UNK        -0.2020 
      2 C          27.1377   -4.8497    0.1073 C.2       0 UNK         0.4855 
      3 O          26.8677   -3.8788    0.8145 O.2       0 UNK        -0.5197 
      4 N          27.8015   -4.7358   -1.0497 N.am      1 UNK        -0.4892 
      5 CA         28.3524   -3.4968   -1.6174 C.3       1 UNK         0.0835 
      6 C6         29.4981   -3.8012   -2.6188 C.3       12 UNK        -0.0855 
      7 S7         31.0320   -4.3750   -1.8141 S.3       12 UNK        -0.2931 
      8 C8         31.7117   -2.8523   -1.0519 C.3       12 UNK         0.0378 
      9 C9         31.5428   -1.5944   -1.9014 C.ar      12 UNK        -0.0802 
     10 C10        32.0694   -1.5338   -3.1951 C.ar      12 UNK        -0.0944 
     11 C11        31.8710   -0.4029   -3.9986 C.ar      12 UNK        -0.0787 
     12 C12        31.1729    0.6878   -3.4699 C.ar      12 UNK        -0.0862 
     13 C13        30.6498    0.6512   -2.1722 C.ar      12 UNK        -0.0733 
     14 C14        30.8391   -0.4967   -1.3967 C.ar      12 UNK        -0.0832 
     15 C15        29.8960    1.8404   -1.5737 C.3       12 UNK         0.0240 
     16 S16        28.8415    2.7632   -2.7481 S.3       12 UNK        -0.2522 
     17 C17        27.7087    1.4681   -3.3500 C.3       12 UNK        -0.0967 
     18 CA         27.7623    1.3328   -4.8960 C.3       5 UNK         0.0660 
     19 N          27.6437   -0.0612   -5.3200 N.am      5 UNK        -0.4015 
     20 C          27.9060   -0.5363   -6.5445 C.2       4 UNK         0.4946 
     21 O          28.3981    0.1240   -7.4603 O.2       4 UNK        -0.5353 
     22 CA         27.5442   -2.0078   -6.7957 C.3       4 UNK         0.0277 
     23 CB         28.7404   -2.9206   -6.4892 C.3       4 UNK        -0.1981 
     24 N          26.3781   -2.4362   -6.0200 N.am      4 UNK        -0.4209 
     25 C          25.1161   -2.0938   -6.3132 C.2       3 UNK         0.4942 
     26 O          24.8051   -1.4062   -7.2860 O.2       3 UNK        -0.5208 
     27 CA         24.0209   -2.5745   -5.3441 C.3       3 UNK         0.0250 
     28 CB         23.6097   -4.0199   -5.6664 C.3       3 UNK        -0.1990 
     29 N          24.4084   -2.4759   -3.9328 N.am      3 UNK        -0.4232 
     30 C          24.6279   -1.3187   -3.2934 C.2       2 UNK         0.4993 
     31 O          24.5301   -0.2147   -3.8270 O.2       2 UNK        -0.5286 
     32 CA         25.0880   -1.3994   -1.8271 C.3       2 UNK         0.0209 
     33 CB         23.8897   -1.6557   -0.8993 C.3       2 UNK        -0.1931 
     34 N          26.1458   -2.3791   -1.5396 N.am      2 UNK        -0.4546 
     35 C          27.2754   -2.5712   -2.2351 C.2       1 UNK         0.5154 
     36 O          27.4866   -2.0363   -3.3232 O.2       1 UNK        -0.5181 
     37 C          26.7054    2.2228   -5.5827 C.2       5 UNK         0.5014 
     38 O          27.0338    3.3208   -6.0317 O.2       5 UNK        -0.5248 
     39 N          25.4585    1.7304   -5.6732 N.am      6 UNK        -0.4434 
     40 CA         24.3585    2.3704   -6.4016 C.3       6 UNK         0.0363 
     41 CB         23.0461    1.6146   -6.1424 C.3       6 UNK        -0.1936 
     42 C          24.6381    2.4777   -7.9093 C.2       6 UNK         0.5081 
     43 O          24.3559    3.5163   -8.5068 O.2       6 UNK        -0.5248 
     44 N          25.2586    1.4403   -8.4865 N.am      7 UNK        -0.4718 
     45 CA         25.7747    1.4087   -9.8588 C.3       7 UNK         0.0273 
     46 CB         25.8557   -0.0587  -10.3148 C.3       7 UNK        -0.1935 
     47 C          27.1231    2.1526  -10.0028 C.2       7 UNK         0.5018 
     48 O          28.0481    1.6366  -10.6337 O.2       7 UNK        -0.5186 
     49 N          27.2097    3.3535   -9.4132 N.am      8 UNK        -0.4240 
     50 CA         28.3520    4.2709   -9.3219 C.3       8 UNK         0.0235 
     51 CB         28.7957    4.7706  -10.7121 C.3       8 UNK        -0.2000 
     52 C          29.5353    3.7166   -8.5086 C.2       8 UNK         0.4941 
     53 O          29.8821    4.2998   -7.4811 O.2       8 UNK        -0.5273 
     54 N          30.1338    2.6230   -8.9900 N.am      9 UNK        -0.4262 
     55 CA         31.2590    1.8988   -8.4008 C.3       9 UNK         0.0264 
     56 CB         32.5161    2.7909   -8.2700 C.3       9 UNK        -0.1955 
     57 C          31.5249    0.6533   -9.2573 C.2       9 UNK         0.5031 
     58 O          32.6164    0.5012   -9.8092 O.2       9 UNK        -0.5390 
     59 N          30.5165   -0.2194   -9.3792 N.am      10 UNK        -0.4204 
     60 CA         30.5681   -1.4232  -10.2227 C.3       10 UNK         0.0237 
     61 CB         29.1377   -1.8649  -10.5684 C.3       10 UNK        -0.1985 
     62 C          31.3826   -2.5891   -9.6246 C.2       10 UNK         0.4970 
     63 O          31.4516   -3.6508  -10.2451 O.2       10 UNK        -0.4914 
     64 N          31.9721   -2.3886   -8.4398 N.am      11 UNK        -0.4285 
     65 CA         32.8120   -3.3604   -7.7270 C.3       11 UNK         0.1007 
     66 C          34.2023   -3.6362   -8.3747 C.2       11 UNK         0.5703 
     67 N          34.6662   -2.8304   -9.3236 N.am      11 UNK        -0.7361 
     68 O          34.8634   -4.6081   -8.0166 O.2       11 UNK        -0.4986 
     69 C69        32.9196   -3.0033   -6.2207 C.3       12 UNK        -0.0947 
     70 S70        33.7470   -1.4039   -5.8930 S.3       12 UNK        -0.2240 
     71 C71        32.3455   -0.3218   -5.4505 C.3       12 UNK         0.0194 
     72 H72        26.9961   -7.0025   -0.1911 H         1 UNK         0.0906 
     73 H73        27.1311   -6.4975    1.4941 H         1 UNK         0.0906 
     74 H74        25.6097   -6.2775    0.6258 H         1 UNK         0.0906 
     75 H75        27.9810   -5.5696   -1.5914 H         1 UNK         0.3140 
     76 H76        28.7774   -2.9144   -0.7975 H         1 UNK         0.1085 
     77 H77        29.1800   -4.5590   -3.3367 H         1 UNK         0.0836 
     78 H78        29.7539   -2.9343   -3.2255 H         1 UNK         0.0836 
     79 H79        32.7734   -3.0044   -0.8537 H         1 UNK         0.0731 
     80 H80        31.2398   -2.7207   -0.0770 H         1 UNK         0.0731 
     81 H81        32.6028   -2.3931   -3.5729 H         1 UNK         0.1312 
     82 H82        31.0272    1.5690   -4.0792 H         1 UNK         0.1406 
     83 H83        30.4365   -0.5346   -0.3933 H         1 UNK         0.1631 
     84 H84        30.6252    2.5311   -1.1487 H         1 UNK         0.0717 
     85 H85        29.2663    1.5108   -0.7457 H         1 UNK         0.0717 
     86 H86        27.9900    0.5275   -2.8759 H         1 UNK         0.0934 
     87 H87        26.6994    1.6747   -2.9875 H         1 UNK         0.0934 
     88 H88        28.7404    1.6677   -5.2495 H         1 UNK         0.0739 
     89 H89        27.3434   -0.7264   -4.6111 H         1 UNK         0.3093 
     90 H90        27.2951   -2.1121   -7.8520 H         1 UNK         0.0818 
     91 H91        29.0459   -2.8505   -5.4463 H         1 UNK         0.0819 
     92 H92        28.5127   -3.9642   -6.7061 H         1 UNK         0.0819 
     93 H93        29.6011   -2.6445   -7.0958 H         1 UNK         0.0819 
     94 H94        26.5617   -2.9236   -5.1531 H         1 UNK         0.3041 
     95 H95        23.1493   -1.9334   -5.4944 H         1 UNK         0.0784 
     96 H96        23.2994   -4.1133   -6.7082 H         1 UNK         0.0793 
     97 H97        24.4298   -4.7210   -5.5065 H         1 UNK         0.0793 
     98 H98        22.7689   -4.3397   -5.0505 H         1 UNK         0.0793 
     99 H99        24.5292   -3.3386   -3.4221 H         1 UNK         0.3024 
    100 H100       25.4995   -0.4190   -1.5782 H         1 UNK         0.1171 
    101 H101       23.0931   -0.9318   -1.0779 H         1 UNK         0.0786 
    102 H102       24.1746   -1.5680    0.1494 H         1 UNK         0.0786 
    103 H103       23.4679   -2.6503   -1.0491 H         1 UNK         0.0786 
    104 H104       26.0903   -2.8572   -0.6446 H         1 UNK         0.2977 
    105 H105       25.2333    0.8658   -5.1848 H         1 UNK         0.3127 
    106 H106       24.2499    3.3847   -6.0120 H         1 UNK         0.0770 
    107 H107       23.1011    0.5799   -6.4815 H         1 UNK         0.0814 
    108 H108       22.2138    2.0865   -6.6662 H         1 UNK         0.0814 
    109 H109       22.7973    1.6053   -5.0811 H         1 UNK         0.0814 
    110 H110       25.4323    0.6153   -7.9240 H         1 UNK         0.2983 
    111 H111       25.0638    1.9195  -10.5118 H         1 UNK         0.0947 
    112 H112       26.1911   -0.1344  -11.3498 H         1 UNK         0.0806 
    113 H113       24.8830   -0.5472  -10.2533 H         1 UNK         0.0806 
    114 H114       26.5515   -0.6267   -9.6979 H         1 UNK         0.0806 
    115 H115       26.3811    3.6579   -8.9133 H         1 UNK         0.3000 
    116 H116       27.9809    5.1375   -8.7720 H         1 UNK         0.0850 
    117 H117       29.6027    5.4990  -10.6225 H         1 UNK         0.0810 
    118 H118       27.9746    5.2605  -11.2352 H         1 UNK         0.0810 
    119 H119       29.1596    3.9625  -11.3470 H         1 UNK         0.0810 
    120 H120       29.6995    2.1868   -9.8014 H         1 UNK         0.3040 
    121 H121       30.9594    1.5626   -7.4068 H         1 UNK         0.0766 
    122 H122       32.3681    3.6064   -7.5633 H         1 UNK         0.0812 
    123 H123       32.8006    3.2251   -9.2290 H         1 UNK         0.0812 
    124 H124       33.3680    2.2149   -7.9058 H         1 UNK         0.0812 
    125 H125       29.6542   -0.0467   -8.8615 H         1 UNK         0.3205 
    126 H126       31.0593   -1.1552  -11.1606 H         1 UNK         0.0754 
    127 H127       29.1410   -2.7059  -11.2629 H         1 UNK         0.0769 
    128 H128       28.5830   -1.0587  -11.0475 H         1 UNK         0.0769 
    129 H129       28.5890   -2.1784   -9.6830 H         1 UNK         0.0769 
    130 H130       31.9117   -1.4727   -8.0256 H         1 UNK         0.2981 
    131 H131       32.2839   -4.3145   -7.7785 H         1 UNK         0.0541 
    132 H132       34.1366   -2.0223   -9.6113 H         1 UNK         0.3459 
    133 H133       35.5641   -3.0215   -9.7388 H         1 UNK         0.3459 
    134 H134       31.9222   -2.9933   -5.7785 H         1 UNK         0.0612 
    135 H135       33.4653   -3.7824   -5.6855 H         1 UNK         0.0612 
    136 H136       31.5001   -0.5343   -6.1056 H         1 UNK         0.0624 
    137 H137       32.6534    0.7025   -5.6661 H         1 UNK         0.0624 
@<TRIPOS>BOND
     1    1    2 1    
     2    1   72 1    
     3    1   73 1    
     4    1   74 1    
     5    2    3 2    
     6    2    4 am   BACKBONE|DICT|INTERRES
     7    4    5 1    
     8    4   75 1    
     9    5    6 1    
    10    5   35 1    
    11    5   76 1    
    12    6    7 1    
    13    6   77 1    
    14    6   78 1    
    15    7    8 1    
    16    8    9 1    
    17    8   79 1    
    18    8   80 1    
    19    9   10 ar   
    20    9   14 ar   
    21   10   11 ar   
    22   10   81 1    
    23   11   12 ar   
    24   11   71 1    
    25   12   13 ar   
    26   12   82 1    
    27   13   14 ar   
    28   13   15 1    
    29   14   83 1    
    30   15   16 1    
    31   15   84 1    
    32   15   85 1    
    33   16   17 1    
    34   17   18 1    
    35   17   86 1    
    36   17   87 1    
    37   18   19 1    
    38   18   37 1    
    39   18   88 1    
    40   19   20 am   BACKBONE|DICT|INTERRES
    41   19   89 1    
    42   20   21 2    
    43   20   22 1    
    44   22   23 1    
    45   22   24 1    
    46   22   90 1    
    47   23   91 1    
    48   23   92 1    
    49   23   93 1    
    50   24   25 am   BACKBONE|DICT|INTERRES
    51   24   94 1    
    52   25   26 2    
    53   25   27 1    
    54   27   28 1    
    55   27   29 1    
    56   27   95 1    
    57   28   96 1    
    58   28   97 1    
    59   28   98 1    
    60   29   30 am   BACKBONE|DICT|INTERRES
    61   29   99 1    
    62   30   31 2    
    63   30   32 1    
    64   32   33 1    
    65   32   34 1    
    66   32  100 1    
    67   33  101 1    
    68   33  102 1    
    69   33  103 1    
    70   34   35 am   BACKBONE|DICT|INTERRES
    71   34  104 1    
    72   35   36 2    
    73   37   38 2    
    74   37   39 am   BACKBONE|DICT|INTERRES
    75   39   40 1    
    76   39  105 1    
    77   40   41 1    
    78   40   42 1    
    79   40  106 1    
    80   41  107 1    
    81   41  108 1    
    82   41  109 1    
    83   42   43 2    
    84   42   44 am   BACKBONE|DICT|INTERRES
    85   44   45 1    
    86   44  110 1    
    87   45   46 1    
    88   45   47 1    
    89   45  111 1    
    90   46  112 1    
    91   46  113 1    
    92   46  114 1    
    93   47   48 2    
    94   47   49 am   BACKBONE|DICT|INTERRES
    95   49   50 1    
    96   49  115 1    
    97   50   51 1    
    98   50   52 1    
    99   50  116 1    
   100   51  117 1    
   101   51  118 1    
   102   51  119 1    
   103   52   53 2    
   104   52   54 am   BACKBONE|DICT|INTERRES
   105   54   55 1    
   106   54  120 1    
   107   55   56 1    
   108   55   57 1    
   109   55  121 1    
   110   56  122 1    
   111   56  123 1    
   112   56  124 1    
   113   57   58 2    
   114   57   59 am   BACKBONE|DICT|INTERRES
   115   59   60 1    
   116   59  125 1    
   117   60   61 1    
   118   60   62 1    
   119   60  126 1    
   120   61  127 1    
   121   61  128 1    
   122   61  129 1    
   123   62   63 2    
   124   62   64 am   BACKBONE|DICT|INTERRES
   125   64   65 1    
   126   64  130 1    
   127   65   66 1    
   128   65   69 1    
   129   65  131 1    
   130   66   67 am   BACKBONE|DICT|INTERRES
   131   66   68 2    
   132   67  132 1    
   133   67  133 1    
   134   69   70 1    
   135   69  134 1    
   136   69  135 1    
   137   70   71 1    
   138   71  136 1    
   139   71  137 1    
@<TRIPOS>SUBSTRUCTURE
     1 UNK         1 GROUP             0       ****    0 ROOT    
