@<TRIPOS>MOLECULE
3R137
137   139    1
SMALL
USER_CHARGES


@<TRIPOS>ATOM
      1 CA         28.8747   -6.7604   -6.4535 C.3       0 UNK        -0.2020 
      2 C          28.3255   -6.3767   -5.0877 C.2       0 UNK         0.4855 
      3 O          27.4248   -7.0466   -4.5803 O.2       0 UNK        -0.5197 
      4 N          28.8752   -5.3157   -4.4846 N.am      1 UNK        -0.4892 
      5 CA         28.4547   -4.7675   -3.1905 C.3       1 UNK         0.0835 
      6 C6         29.5901   -3.9228   -2.5545 C.3       12 UNK        -0.0855 
      7 S7         29.6296   -4.0607   -0.7319 S.3       12 UNK        -0.2931 
      8 C8         31.3641   -3.6077   -0.3607 C.3       12 UNK         0.0378 
      9 C9         31.7814   -2.2894   -1.0051 C.ar      12 UNK        -0.0802 
     10 C10        32.9758   -2.1986   -1.7256 C.ar      12 UNK        -0.0944 
     11 C11        33.3176   -1.0141   -2.3875 C.ar      12 UNK        -0.0787 
     12 C12        32.4440    0.0776   -2.3441 C.ar      12 UNK        -0.0862 
     13 C13        31.2431   -0.0051   -1.6344 C.ar      12 UNK        -0.0733 
     14 C14        30.9482   -1.1719   -0.9241 C.ar      12 UNK        -0.0832 
     15 C15        30.2286    1.1290   -1.6910 C.3       12 UNK         0.0240 
     16 S16        28.5921    0.4829   -2.1644 S.3       12 UNK        -0.2522 
     17 C17        27.7612    1.9333   -2.8793 C.3       12 UNK        -0.0967 
     18 CA         27.7746    1.9133   -4.4291 C.3       5 UNK         0.0660 
     19 N          27.3221    0.6357   -4.9917 N.am      5 UNK        -0.4015 
     20 C          27.4964    0.2649   -6.2697 C.2       4 UNK         0.4946 
     21 O          28.0962    0.9426   -7.1027 O.2       4 UNK        -0.5353 
     22 CA         26.8812   -1.0692   -6.7243 C.3       4 UNK         0.0277 
     23 CB         27.9457   -2.1742   -6.6980 C.3       4 UNK        -0.1981 
     24 N          25.7121   -1.4775   -5.9437 N.am      4 UNK        -0.4209 
     25 C          24.5794   -0.7624   -5.8499 C.2       3 UNK         0.4942 
     26 O          24.3861    0.2863   -6.4679 O.2       3 UNK        -0.5208 
     27 CA         23.5013   -1.2515   -4.8662 C.3       3 UNK         0.0250 
     28 CB         22.3781   -1.9766   -5.6235 C.3       3 UNK        -0.1990 
     29 N          23.9999   -2.1188   -3.7931 N.am      3 UNK        -0.4232 
     30 C          24.9442   -1.7986   -2.8952 C.2       2 UNK         0.4993 
     31 O          25.5194   -0.7099   -2.8744 O.2       2 UNK        -0.5286 
     32 CA         25.3314   -2.8824   -1.8674 C.3       2 UNK         0.0209 
     33 CB         24.2630   -3.9871   -1.7034 C.3       2 UNK        -0.1931 
     34 N          26.6394   -3.5042   -2.1245 N.am      2 UNK        -0.4546 
     35 C          27.1071   -4.0043   -3.2790 C.2       1 UNK         0.5154 
     36 O          26.5174   -3.8932   -4.3586 O.2       1 UNK        -0.5181 
     37 C          26.9428    3.0881   -4.9762 C.2       5 UNK         0.5014 
     38 O          27.5066    4.1357   -5.2931 O.2       5 UNK        -0.5248 
     39 N          25.6208    2.8867   -5.0847 N.am      6 UNK        -0.4434 
     40 CA         24.6715    3.8631   -5.6214 C.3       6 UNK         0.0363 
     41 CB         23.2428    3.4743   -5.2076 C.3       6 UNK        -0.1936 
     42 C          24.7818    3.9897   -7.1479 C.2       6 UNK         0.5081 
     43 O          24.7202    5.1022   -7.6713 O.2       6 UNK        -0.5248 
     44 N          24.9640    2.8511   -7.8308 N.am      7 UNK        -0.4718 
     45 CA         25.1676    2.7779   -9.2800 C.3       7 UNK         0.0273 
     46 CB         24.9242    1.3312   -9.7393 C.3       7 UNK        -0.1935 
     47 C          26.5611    3.2529   -9.7348 C.2       7 UNK         0.5018 
     48 O          26.7258    3.5594  -10.9161 O.2       7 UNK        -0.5186 
     49 N          27.5324    3.2704   -8.8075 N.am      8 UNK        -0.4240 
     50 CA         28.9701    3.4947   -9.0131 C.3       8 UNK         0.0235 
     51 CB         29.2503    4.9358   -9.4884 C.3       8 UNK        -0.2000 
     52 C          29.5944    2.4202   -9.9266 C.2       8 UNK         0.4941 
     53 O          30.4625    2.7215  -10.7478 O.2       8 UNK        -0.5273 
     54 N          29.1387    1.1715   -9.7663 N.am      9 UNK        -0.4262 
     55 CA         29.4420    0.0305  -10.6326 C.3       9 UNK         0.0264 
     56 CB         28.2292   -0.9193  -10.6427 C.3       9 UNK        -0.1955 
     57 C          30.7493   -0.6809  -10.2385 C.2       9 UNK         0.5031 
     58 O          30.7758   -1.9107  -10.1615 O.2       9 UNK        -0.5390 
     59 N          31.8064    0.1039   -9.9791 N.am      10 UNK        -0.4204 
     60 CA         33.1735   -0.3205   -9.6377 C.3       10 UNK         0.0237 
     61 CB         33.8955   -0.8226  -10.9063 C.3       10 UNK        -0.1985 
     62 C          33.2433   -1.3350   -8.4746 C.2       10 UNK         0.4970 
     63 O          34.0008   -2.3041   -8.5506 O.2       10 UNK        -0.4914 
     64 N          32.4256   -1.0988   -7.4387 N.am      11 UNK        -0.4285 
     65 CA         32.2253   -1.9626   -6.2590 C.3       11 UNK         0.1007 
     66 C          31.4485   -3.2851   -6.5429 C.2       11 UNK         0.5703 
     67 N          30.9714   -3.5481   -7.7540 N.am      11 UNK        -0.7361 
     68 O          31.2214   -4.0734   -5.6285 O.2       11 UNK        -0.4986 
     69 C69        33.5281   -2.2167   -5.4426 C.3       12 UNK        -0.0947 
     70 S70        34.3650   -0.6700   -4.9479 S.3       12 UNK        -0.2240 
     71 C71        34.6247   -0.9197   -3.1625 C.3       12 UNK         0.0194 
     72 H72        29.8339   -6.2832   -6.6518 H         1 UNK         0.0906 
     73 H73        29.0195   -7.8388   -6.5131 H         1 UNK         0.0906 
     74 H74        28.1748   -6.4655   -7.2349 H         1 UNK         0.0906 
     75 H75        29.6356   -4.8201   -4.9453 H         1 UNK         0.3140 
     76 H76        28.2694   -5.6285   -2.5438 H         1 UNK         0.1085 
     77 H77        29.5250   -2.8729   -2.8493 H         1 UNK         0.0836 
     78 H78        30.5609   -4.2669   -2.9164 H         1 UNK         0.0836 
     79 H79        32.0128   -4.4199   -0.6927 H         1 UNK         0.0731 
     80 H80        31.4893   -3.5312    0.7200 H         1 UNK         0.0731 
     81 H81        33.6328   -3.0557   -1.7857 H         1 UNK         0.1312 
     82 H82        32.6901    0.9789   -2.8891 H         1 UNK         0.1406 
     83 H83        30.0197   -1.2396   -0.3734 H         1 UNK         0.1631 
     84 H84        30.5408    1.8848   -2.4135 H         1 UNK         0.0717 
     85 H85        30.1644    1.6196   -0.7191 H         1 UNK         0.0717 
     86 H86        26.7363    1.9323   -2.5018 H         1 UNK         0.0934 
     87 H87        28.2242    2.8457   -2.4980 H         1 UNK         0.0934 
     88 H88        28.8064    2.0641   -4.7547 H         1 UNK         0.0739 
     89 H89        26.8239    0.0221   -4.3543 H         1 UNK         0.3093 
     90 H90        26.5494   -0.9418   -7.7556 H         1 UNK         0.0818 
     91 H91        28.3457   -2.3287   -5.6953 H         1 UNK         0.0819 
     92 H92        27.5473   -3.1255   -7.0513 H         1 UNK         0.0819 
     93 H93        28.7827   -1.9122   -7.3454 H         1 UNK         0.0819 
     94 H94        25.8088   -2.3240   -5.3882 H         1 UNK         0.3041 
     95 H95        23.0773   -0.3633   -4.3932 H         1 UNK         0.0784 
     96 H96        22.7355   -2.8938   -6.0934 H         1 UNK         0.0793 
     97 H97        21.9680   -1.3444   -6.4128 H         1 UNK         0.0793 
     98 H98        21.5535   -2.2367   -4.9595 H         1 UNK         0.0793 
     99 H99        23.6131   -3.0505   -3.7530 H         1 UNK         0.3024 
    100 H100       25.4166   -2.3620   -0.9117 H         1 UNK         0.1171 
    101 H101       24.5047   -4.6383   -0.8632 H         1 UNK         0.0786 
    102 H102       23.2788   -3.5623   -1.5000 H         1 UNK         0.0786 
    103 H103       24.1812   -4.6180   -2.5895 H         1 UNK         0.0786 
    104 H104       27.2425   -3.5891   -1.3158 H         1 UNK         0.2977 
    105 H105       25.2483    1.9787   -4.8444 H         1 UNK         0.3127 
    106 H106       24.8985    4.8393   -5.1869 H         1 UNK         0.0770 
    107 H107       22.9549    2.4999   -5.6044 H         1 UNK         0.0814 
    108 H108       22.5198    4.2024   -5.5777 H         1 UNK         0.0814 
    109 H109       23.1394    3.4391   -4.1230 H         1 UNK         0.0814 
    110 H110       24.9272    1.9690   -7.3260 H         1 UNK         0.2983 
    111 H111       24.4296    3.4213   -9.7644 H         1 UNK         0.0947 
    112 H112       25.0247    1.2411  -10.8218 H         1 UNK         0.0806 
    113 H113       23.9211    0.9943   -9.4770 H         1 UNK         0.0806 
    114 H114       25.6367    0.6420   -9.2866 H         1 UNK         0.0806 
    115 H115       27.2830    2.9493   -7.8809 H         1 UNK         0.3000 
    116 H116       29.4382    3.3715   -8.0351 H         1 UNK         0.0850 
    117 H117       30.3219    5.1378   -9.5092 H         1 UNK         0.0810 
    118 H118       28.7956    5.6678   -8.8209 H         1 UNK         0.0810 
    119 H119       28.8680    5.1142  -10.4938 H         1 UNK         0.0810 
    120 H120       28.5380    0.9966   -8.9642 H         1 UNK         0.3040 
    121 H121       29.5799    0.3937  -11.6533 H         1 UNK         0.0766 
    122 H122       27.3222   -0.4019  -10.9550 H         1 UNK         0.0812 
    123 H123       28.0494   -1.3542   -9.6600 H         1 UNK         0.0812 
    124 H124       28.3836   -1.7441  -11.3396 H         1 UNK         0.0812 
    125 H125       31.6622    1.1026  -10.0895 H         1 UNK         0.3205 
    126 H126       33.6968    0.5718   -9.2908 H         1 UNK         0.0754 
    127 H127       34.9447   -1.0410  -10.7027 H         1 UNK         0.0769 
    128 H128       33.8710   -0.0749  -11.6990 H         1 UNK         0.0769 
    129 H129       33.4401   -1.7355  -11.2926 H         1 UNK         0.0769 
    130 H130       31.8303   -0.2854   -7.4828 H         1 UNK         0.2981 
    131 H131       31.5547   -1.3955   -5.6121 H         1 UNK         0.0541 
    132 H132       31.1024   -2.9055   -8.5296 H         1 UNK         0.3459 
    133 H133       30.4689   -4.4051   -7.9080 H         1 UNK         0.3459 
    134 H134       34.2348   -2.8215   -6.0116 H         1 UNK         0.0612 
    135 H135       33.3015   -2.7979   -4.5481 H         1 UNK         0.0612 
    136 H136       35.2073   -0.0837   -2.7733 H         1 UNK         0.0624 
    137 H137       35.2336   -1.8131   -3.0155 H         1 UNK         0.0624 
@<TRIPOS>BOND
     1    1    2 1    
     2    1   72 1    
     3    1   73 1    
     4    1   74 1    
     5    2    3 2    
     6    2    4 am   BACKBONE|DICT|INTERRES
     7    4    5 1    
     8    4   75 1    
     9    5    6 1    
    10    5   35 1    
    11    5   76 1    
    12    6    7 1    
    13    6   77 1    
    14    6   78 1    
    15    7    8 1    
    16    8    9 1    
    17    8   79 1    
    18    8   80 1    
    19    9   10 ar   
    20    9   14 ar   
    21   10   11 ar   
    22   10   81 1    
    23   11   12 ar   
    24   11   71 1    
    25   12   13 ar   
    26   12   82 1    
    27   13   14 ar   
    28   13   15 1    
    29   14   83 1    
    30   15   16 1    
    31   15   84 1    
    32   15   85 1    
    33   16   17 1    
    34   17   18 1    
    35   17   86 1    
    36   17   87 1    
    37   18   19 1    
    38   18   37 1    
    39   18   88 1    
    40   19   20 am   BACKBONE|DICT|INTERRES
    41   19   89 1    
    42   20   21 2    
    43   20   22 1    
    44   22   23 1    
    45   22   24 1    
    46   22   90 1    
    47   23   91 1    
    48   23   92 1    
    49   23   93 1    
    50   24   25 am   BACKBONE|DICT|INTERRES
    51   24   94 1    
    52   25   26 2    
    53   25   27 1    
    54   27   28 1    
    55   27   29 1    
    56   27   95 1    
    57   28   96 1    
    58   28   97 1    
    59   28   98 1    
    60   29   30 am   BACKBONE|DICT|INTERRES
    61   29   99 1    
    62   30   31 2    
    63   30   32 1    
    64   32   33 1    
    65   32   34 1    
    66   32  100 1    
    67   33  101 1    
    68   33  102 1    
    69   33  103 1    
    70   34   35 am   BACKBONE|DICT|INTERRES
    71   34  104 1    
    72   35   36 2    
    73   37   38 2    
    74   37   39 am   BACKBONE|DICT|INTERRES
    75   39   40 1    
    76   39  105 1    
    77   40   41 1    
    78   40   42 1    
    79   40  106 1    
    80   41  107 1    
    81   41  108 1    
    82   41  109 1    
    83   42   43 2    
    84   42   44 am   BACKBONE|DICT|INTERRES
    85   44   45 1    
    86   44  110 1    
    87   45   46 1    
    88   45   47 1    
    89   45  111 1    
    90   46  112 1    
    91   46  113 1    
    92   46  114 1    
    93   47   48 2    
    94   47   49 am   BACKBONE|DICT|INTERRES
    95   49   50 1    
    96   49  115 1    
    97   50   51 1    
    98   50   52 1    
    99   50  116 1    
   100   51  117 1    
   101   51  118 1    
   102   51  119 1    
   103   52   53 2    
   104   52   54 am   BACKBONE|DICT|INTERRES
   105   54   55 1    
   106   54  120 1    
   107   55   56 1    
   108   55   57 1    
   109   55  121 1    
   110   56  122 1    
   111   56  123 1    
   112   56  124 1    
   113   57   58 2    
   114   57   59 am   BACKBONE|DICT|INTERRES
   115   59   60 1    
   116   59  125 1    
   117   60   61 1    
   118   60   62 1    
   119   60  126 1    
   120   61  127 1    
   121   61  128 1    
   122   61  129 1    
   123   62   63 2    
   124   62   64 am   BACKBONE|DICT|INTERRES
   125   64   65 1    
   126   64  130 1    
   127   65   66 1    
   128   65   69 1    
   129   65  131 1    
   130   66   67 am   BACKBONE|DICT|INTERRES
   131   66   68 2    
   132   67  132 1    
   133   67  133 1    
   134   69   70 1    
   135   69  134 1    
   136   69  135 1    
   137   70   71 1    
   138   71  136 1    
   139   71  137 1    
@<TRIPOS>SUBSTRUCTURE
     1 UNK         1 GROUP             0       ****    0 ROOT    
