@<TRIPOS>MOLECULE
3R137
137   139    1
SMALL
USER_CHARGES


@<TRIPOS>ATOM
      1 CA         26.4261   -4.9764    1.8222 C.3       0 UNK        -0.2020 
      2 C          27.0840   -3.9150    0.9538 C.2       0 UNK         0.4855 
      3 O          27.3192   -2.8008    1.4200 O.2       0 UNK        -0.5197 
      4 N          27.3681   -4.2434   -0.3128 N.am      1 UNK        -0.4892 
      5 CA         28.0399   -3.3701   -1.2859 C.3       1 UNK         0.0835 
      6 C6         28.9235   -4.1799   -2.2693 C.3       12 UNK        -0.0855 
      7 S7         30.4203   -4.8773   -1.4920 S.3       12 UNK        -0.2931 
      8 C8         31.3612   -3.3981   -0.9562 C.3       12 UNK         0.0378 
      9 C9         31.3125   -2.2282   -1.9378 C.ar      12 UNK        -0.0802 
     10 C10        31.7479   -2.3863   -3.2552 C.ar      12 UNK        -0.0944 
     11 C11        31.6915   -1.3202   -4.1572 C.ar      12 UNK        -0.0787 
     12 C12        31.2187   -0.0746   -3.7274 C.ar      12 UNK        -0.0862 
     13 C13        30.7889    0.1052   -2.4051 C.ar      12 UNK        -0.0733 
     14 C14        30.8401   -0.9791   -1.5216 C.ar      12 UNK        -0.0832 
     15 C15        30.3170    1.4608   -1.8721 C.3       12 UNK         0.0240 
     16 S16        29.4312    2.5241   -3.0648 S.3       12 UNK        -0.2522 
     17 C17        27.9678    1.5164   -3.4754 C.3       12 UNK        -0.0967 
     18 CA         27.9020    1.2402   -5.0008 C.3       5 UNK         0.0660 
     19 N          27.6701   -0.1685   -5.3157 N.am      5 UNK        -0.4015 
     20 C          27.8139   -0.7051   -6.5354 C.2       4 UNK         0.4946 
     21 O          28.1736   -0.0690   -7.5267 O.2       4 UNK        -0.5353 
     22 CA         27.4934   -2.1972   -6.6779 C.3       4 UNK         0.0277 
     23 CB         28.7070   -3.0458   -6.2692 C.3       4 UNK        -0.1981 
     24 N          26.3225   -2.5672   -5.8800 N.am      4 UNK        -0.4209 
     25 C          25.0583   -2.3329   -6.2615 C.2       3 UNK         0.4942 
     26 O          24.7510   -1.8434   -7.3483 O.2       3 UNK        -0.5208 
     27 CA         23.9448   -2.6878   -5.2597 C.3       3 UNK         0.0250 
     28 CB         23.5355   -4.1619   -5.4081 C.3       3 UNK        -0.1990 
     29 N          24.2981   -2.4169   -3.8632 N.am      3 UNK        -0.4232 
     30 C          24.5438   -1.1971   -3.3651 C.2       2 UNK         0.4993 
     31 O          24.5217   -0.1638   -4.0312 O.2       2 UNK        -0.5286 
     32 CA         24.9405   -1.1182   -1.8830 C.3       2 UNK         0.0209 
     33 CB         23.6938   -1.1633   -0.9851 C.3       2 UNK        -0.1931 
     34 N          25.8987   -2.1406   -1.4447 N.am      2 UNK        -0.4546 
     35 C          27.0764   -2.4142   -2.0252 C.2       1 UNK         0.5154 
     36 O          27.4180   -1.9281   -3.1050 O.2       1 UNK        -0.5181 
     37 C          26.9158    2.1691   -5.7359 C.2       5 UNK         0.5014 
     38 O          27.3545    3.1323   -6.3682 O.2       5 UNK        -0.5248 
     39 N          25.6180    1.8247   -5.7039 N.am      6 UNK        -0.4434 
     40 CA         24.5369    2.5276   -6.4061 C.3       6 UNK         0.0363 
     41 CB         23.1812    1.9485   -5.9725 C.3       6 UNK        -0.1936 
     42 C          24.6583    2.4965   -7.9402 C.2       6 UNK         0.5081 
     43 O          24.1236    3.3857   -8.6017 O.2       6 UNK        -0.5248 
     44 N          25.3926    1.5155   -8.4812 N.am      7 UNK        -0.4718 
     45 CA         25.7503    1.4017   -9.8977 C.3       7 UNK         0.0273 
     46 CB         25.8880   -0.0896  -10.2531 C.3       7 UNK        -0.1935 
     47 C          27.0147    2.2148  -10.2568 C.2       7 UNK         0.5018 
     48 O          27.7139    1.8576  -11.2055 O.2       7 UNK        -0.5186 
     49 N          27.2784    3.2923   -9.5005 N.am      8 UNK        -0.4240 
     50 CA         28.4111    4.2184   -9.5992 C.3       8 UNK         0.0235 
     51 CB         28.3945    4.9807  -10.9423 C.3       8 UNK        -0.2000 
     52 C          29.7540    3.5284   -9.3019 C.2       8 UNK         0.4941 
     53 O          30.7096    3.6892  -10.0636 O.2       8 UNK        -0.5273 
     54 N          29.7884    2.7802   -8.1876 N.am      9 UNK        -0.4262 
     55 CA         30.9221    1.9951   -7.6826 C.3       9 UNK         0.0264 
     56 CB         32.0526    2.9167   -7.1802 C.3       9 UNK        -0.1955 
     57 C          31.4034    0.9418   -8.6953 C.2       9 UNK         0.5031 
     58 O          32.5718    0.9398   -9.0906 O.2       9 UNK        -0.5390 
     59 N          30.4913    0.0404   -9.0807 N.am      10 UNK        -0.4204 
     60 CA         30.7234   -1.0763  -10.0021 C.3       10 UNK         0.0237 
     61 CB         29.3719   -1.5314  -10.5819 C.3       10 UNK        -0.1985 
     62 C          31.5021   -2.2327   -9.3403 C.2       10 UNK         0.4970 
     63 O          31.0517   -3.3794   -9.3648 O.2       10 UNK        -0.4914 
     64 N          32.6474   -1.9033   -8.7370 N.am      11 UNK        -0.4285 
     65 CA         33.5772   -2.8384   -8.0986 C.3       11 UNK         0.1007 
     66 C          34.3393   -3.7031   -9.1411 C.2       11 UNK         0.5703 
     67 N          34.7189   -4.9208   -8.7774 N.am      11 UNK        -0.7361 
     68 O          34.6230   -3.2707  -10.2574 O.2       11 UNK        -0.4986 
     69 C69        34.5730   -2.0873   -7.1736 C.3       12 UNK        -0.0947 
     70 S70        33.9072   -1.0966   -5.7785 S.3       12 UNK        -0.2240 
     71 C71        32.1478   -1.5322   -5.5915 C.3       12 UNK         0.0194 
     72 H72        26.2670   -5.9078    1.2792 H         1 UNK         0.0906 
     73 H73        27.0519   -5.1921    2.6878 H         1 UNK         0.0906 
     74 H74        25.4595   -4.6231    2.1805 H         1 UNK         0.0906 
     75 H75        27.1432   -5.1712   -0.6448 H         1 UNK         0.3140 
     76 H76        28.6939   -2.6957   -0.7332 H         1 UNK         0.1085 
     77 H77        29.2616   -3.5745   -3.1087 H         1 UNK         0.0836 
     78 H78        28.3493   -4.9934   -2.7155 H         1 UNK         0.0836 
     79 H79        32.4024   -3.6847   -0.8026 H         1 UNK         0.0731 
     80 H80        30.9882   -3.0925    0.0226 H         1 UNK         0.0731 
     81 H81        32.1193   -3.3486   -3.5806 H         1 UNK         0.1312 
     82 H82        31.2006    0.7550   -4.4196 H         1 UNK         0.1406 
     83 H83        30.5206   -0.8448   -0.4968 H         1 UNK         0.1631 
     84 H84        31.1902    2.0064   -1.5126 H         1 UNK         0.0717 
     85 H85        29.6679    1.3194   -1.0063 H         1 UNK         0.0717 
     86 H86        28.0255    0.5853   -2.9120 H         1 UNK         0.0934 
     87 H87        27.0721    2.0183   -3.1034 H         1 UNK         0.0934 
     88 H88        28.8815    1.4570   -5.4234 H         1 UNK         0.0739 
     89 H89        27.4304   -0.7797   -4.5376 H         1 UNK         0.3093 
     90 H90        27.2794   -2.3982   -7.7299 H         1 UNK         0.0818 
     91 H91        28.4887   -4.1120   -6.3294 H         1 UNK         0.0819 
     92 H92        29.5524   -2.8515   -6.9301 H         1 UNK         0.0819 
     93 H93        29.0341   -2.8228   -5.2541 H         1 UNK         0.0819 
     94 H94        26.4943   -2.9084   -4.9437 H         1 UNK         0.3041 
     95 H95        23.0793   -2.0682   -5.5051 H         1 UNK         0.0784 
     96 H96        23.2464   -4.3843   -6.4364 H         1 UNK         0.0793 
     97 H97        24.3506   -4.8376   -5.1456 H         1 UNK         0.0793 
     98 H98        22.6814   -4.4027   -4.7749 H         1 UNK         0.0793 
     99 H99        24.3577   -3.2091   -3.2401 H         1 UNK         0.3024 
    100 H100       25.4245   -0.1496   -1.7397 H         1 UNK         0.1171 
    101 H101       23.9488   -0.9738    0.0578 H         1 UNK         0.0786 
    102 H102       22.9703   -0.4023   -1.2821 H         1 UNK         0.0786 
    103 H103       23.1911   -2.1298   -1.0376 H         1 UNK         0.0786 
    104 H104       25.7140   -2.5813   -0.5548 H         1 UNK         0.2977 
    105 H105       25.3318    1.0221   -5.1425 H         1 UNK         0.3127 
    106 H106       24.5745    3.5752   -6.1004 H         1 UNK         0.0770 
    107 H107       23.0976    0.8907   -6.2263 H         1 UNK         0.0814 
    108 H108       22.3567    2.4690   -6.4618 H         1 UNK         0.0814 
    109 H109       23.0328    2.0477   -4.8971 H         1 UNK         0.0814 
    110 H110       25.8192    0.8399   -7.8613 H         1 UNK         0.2983 
    111 H111       24.9383    1.8103  -10.5030 H         1 UNK         0.0947 
    112 H112       26.6905   -0.5628   -9.6892 H         1 UNK         0.0806 
    113 H113       26.1036   -0.2286  -11.3131 H         1 UNK         0.0806 
    114 H114       24.9680   -0.6335  -10.0377 H         1 UNK         0.0806 
    115 H115       26.6528    3.4649   -8.7250 H         1 UNK         0.3000 
    116 H116       28.2694    4.9543   -8.8060 H         1 UNK         0.0850 
    117 H117       29.1634    5.7540  -10.9598 H         1 UNK         0.0810 
    118 H118       27.4364    5.4733  -11.1075 H         1 UNK         0.0810 
    119 H119       28.5827    4.3194  -11.7886 H         1 UNK         0.0810 
    120 H120       28.9346    2.7271   -7.6404 H         1 UNK         0.3040 
    121 H121       30.5635    1.4327   -6.8230 H         1 UNK         0.0766 
    122 H122       32.8588    2.3333   -6.7332 H         1 UNK         0.0812 
    123 H123       31.6912    3.6069   -6.4180 H         1 UNK         0.0812 
    124 H124       32.4875    3.5050   -7.9888 H         1 UNK         0.0812 
    125 H125       29.5679    0.0821   -8.6472 H         1 UNK         0.3205 
    126 H126       31.3343   -0.7148  -10.8318 H         1 UNK         0.0754 
    127 H127       29.5076   -2.3198  -11.3233 H         1 UNK         0.0769 
    128 H128       28.8578   -0.7081  -11.0781 H         1 UNK         0.0769 
    129 H129       28.7136   -1.9217   -9.8052 H         1 UNK         0.0769 
    130 H130       32.9434   -0.9330   -8.7881 H         1 UNK         0.2981 
    131 H131       32.9939   -3.5349   -7.4964 H         1 UNK         0.0541 
    132 H132       35.2272   -5.4912   -9.4351 H         1 UNK         0.3459 
    133 H133       34.5054   -5.2837   -7.8614 H         1 UNK         0.3459 
    134 H134       35.2663   -2.8040   -6.7294 H         1 UNK         0.0612 
    135 H135       35.1928   -1.4159   -7.7711 H         1 UNK         0.0612 
    136 H136       31.5434   -0.9333   -6.2729 H         1 UNK         0.0624 
    137 H137       31.9759   -2.5743   -5.8543 H         1 UNK         0.0624 
@<TRIPOS>BOND
     1    1    2 1    
     2    1   72 1    
     3    1   73 1    
     4    1   74 1    
     5    2    3 2    
     6    2    4 am   BACKBONE|DICT|INTERRES
     7    4    5 1    
     8    4   75 1    
     9    5    6 1    
    10    5   35 1    
    11    5   76 1    
    12    6    7 1    
    13    6   77 1    
    14    6   78 1    
    15    7    8 1    
    16    8    9 1    
    17    8   79 1    
    18    8   80 1    
    19    9   10 ar   
    20    9   14 ar   
    21   10   11 ar   
    22   10   81 1    
    23   11   12 ar   
    24   11   71 1    
    25   12   13 ar   
    26   12   82 1    
    27   13   14 ar   
    28   13   15 1    
    29   14   83 1    
    30   15   16 1    
    31   15   84 1    
    32   15   85 1    
    33   16   17 1    
    34   17   18 1    
    35   17   86 1    
    36   17   87 1    
    37   18   19 1    
    38   18   37 1    
    39   18   88 1    
    40   19   20 am   BACKBONE|DICT|INTERRES
    41   19   89 1    
    42   20   21 2    
    43   20   22 1    
    44   22   23 1    
    45   22   24 1    
    46   22   90 1    
    47   23   91 1    
    48   23   92 1    
    49   23   93 1    
    50   24   25 am   BACKBONE|DICT|INTERRES
    51   24   94 1    
    52   25   26 2    
    53   25   27 1    
    54   27   28 1    
    55   27   29 1    
    56   27   95 1    
    57   28   96 1    
    58   28   97 1    
    59   28   98 1    
    60   29   30 am   BACKBONE|DICT|INTERRES
    61   29   99 1    
    62   30   31 2    
    63   30   32 1    
    64   32   33 1    
    65   32   34 1    
    66   32  100 1    
    67   33  101 1    
    68   33  102 1    
    69   33  103 1    
    70   34   35 am   BACKBONE|DICT|INTERRES
    71   34  104 1    
    72   35   36 2    
    73   37   38 2    
    74   37   39 am   BACKBONE|DICT|INTERRES
    75   39   40 1    
    76   39  105 1    
    77   40   41 1    
    78   40   42 1    
    79   40  106 1    
    80   41  107 1    
    81   41  108 1    
    82   41  109 1    
    83   42   43 2    
    84   42   44 am   BACKBONE|DICT|INTERRES
    85   44   45 1    
    86   44  110 1    
    87   45   46 1    
    88   45   47 1    
    89   45  111 1    
    90   46  112 1    
    91   46  113 1    
    92   46  114 1    
    93   47   48 2    
    94   47   49 am   BACKBONE|DICT|INTERRES
    95   49   50 1    
    96   49  115 1    
    97   50   51 1    
    98   50   52 1    
    99   50  116 1    
   100   51  117 1    
   101   51  118 1    
   102   51  119 1    
   103   52   53 2    
   104   52   54 am   BACKBONE|DICT|INTERRES
   105   54   55 1    
   106   54  120 1    
   107   55   56 1    
   108   55   57 1    
   109   55  121 1    
   110   56  122 1    
   111   56  123 1    
   112   56  124 1    
   113   57   58 2    
   114   57   59 am   BACKBONE|DICT|INTERRES
   115   59   60 1    
   116   59  125 1    
   117   60   61 1    
   118   60   62 1    
   119   60  126 1    
   120   61  127 1    
   121   61  128 1    
   122   61  129 1    
   123   62   63 2    
   124   62   64 am   BACKBONE|DICT|INTERRES
   125   64   65 1    
   126   64  130 1    
   127   65   66 1    
   128   65   69 1    
   129   65  131 1    
   130   66   67 am   BACKBONE|DICT|INTERRES
   131   66   68 2    
   132   67  132 1    
   133   67  133 1    
   134   69   70 1    
   135   69  134 1    
   136   69  135 1    
   137   70   71 1    
   138   71  136 1    
   139   71  137 1    
@<TRIPOS>SUBSTRUCTURE
     1 UNK         1 GROUP             0       ****    0 ROOT    
