@<TRIPOS>MOLECULE
3R137
137   139    1
SMALL
USER_CHARGES


@<TRIPOS>ATOM
      1 CA         24.5541   -6.1179   -2.7825 C.3       0 UNK        -0.2020 
      2 C          25.1632   -5.0490   -1.8885 C.2       0 UNK         0.4855 
      3 O          24.4316   -4.2880   -1.2546 O.2       0 UNK        -0.5197 
      4 N          26.4998   -4.9795   -1.8452 N.am      1 UNK        -0.4892 
      5 CA         27.2956   -4.0173   -1.0739 C.3       1 UNK         0.0835 
      6 C6         28.7995   -4.3534   -1.2044 C.3       12 UNK        -0.0855 
      7 S7         29.8615   -3.4064   -0.0626 S.3       12 UNK        -0.2931 
      8 C8         31.3714   -3.2073   -1.0642 C.3       12 UNK         0.0378 
      9 C9         31.1578   -2.2763   -2.2501 C.ar      12 UNK        -0.0802 
     10 C10        31.0589   -2.7888   -3.5477 C.ar      12 UNK        -0.0944 
     11 C11        30.8670   -1.9313   -4.6339 C.ar      12 UNK        -0.0787 
     12 C12        30.8008   -0.5528   -4.4193 C.ar      12 UNK        -0.0862 
     13 C13        30.8738   -0.0264   -3.1248 C.ar      12 UNK        -0.0733 
     14 C14        31.0616   -0.8969   -2.0467 C.ar      12 UNK        -0.0832 
     15 C15        30.7504    1.4729   -2.8595 C.3       12 UNK         0.0240 
     16 S16        29.5330    2.3467   -3.9058 S.3       12 UNK        -0.2522 
     17 C17        28.0312    1.3096   -3.7731 C.3       12 UNK        -0.0967 
     18 CA         27.6094    0.7518   -5.1608 C.3       5 UNK         0.0660 
     19 N          27.1170   -0.6284   -5.0827 N.am      5 UNK        -0.4015 
     20 C          26.9140   -1.4505   -6.1238 C.2       4 UNK         0.4946 
     21 O          27.1728   -1.1529   -7.2898 O.2       4 UNK        -0.5353 
     22 CA         26.2148   -2.7866   -5.8228 C.3       4 UNK         0.0277 
     23 CB         27.2332   -3.8864   -5.4802 C.3       4 UNK        -0.1981 
     24 N          25.2346   -2.6377   -4.7405 N.am      4 UNK        -0.4209 
     25 C          24.0445   -2.0338   -4.8922 C.2       3 UNK         0.4942 
     26 O          23.6128   -1.6583   -5.9809 O.2       3 UNK        -0.5208 
     27 CA         23.2088   -1.7572   -3.6300 C.3       3 UNK         0.0250 
     28 CB         22.1731   -2.8690   -3.4015 C.3       3 UNK        -0.1990 
     29 N          24.0338   -1.5839   -2.4314 N.am      3 UNK        -0.4232 
     30 C          24.7525   -0.4791   -2.1742 C.2       2 UNK         0.4993 
     31 O          24.7342    0.5262   -2.8840 O.2       2 UNK        -0.5286 
     32 CA         25.6895   -0.5098   -0.9511 C.3       2 UNK         0.0209 
     33 CB         24.9721    0.0422    0.2907 C.3       2 UNK        -0.1931 
     34 N          26.2273   -1.8416   -0.6525 N.am      2 UNK        -0.4546 
     35 C          26.9652   -2.5703   -1.5014 C.2       1 UNK         0.5154 
     36 O          27.3010   -2.1687   -2.6169 O.2       1 UNK        -0.5181 
     37 C          26.6773    1.7264   -5.9237 C.2       5 UNK         0.5014 
     38 O          27.0805    2.8619   -6.1758 O.2       5 UNK        -0.5248 
     39 N          25.4883    1.2805   -6.3611 N.am      6 UNK        -0.4434 
     40 CA         24.6704    1.9724   -7.3646 C.3       6 UNK         0.0363 
     41 CB         23.3212    1.2542   -7.5135 C.3       6 UNK        -0.1936 
     42 C          25.3743    2.0887   -8.7341 C.2       6 UNK         0.5081 
     43 O          25.0865    3.0245   -9.4798 O.2       6 UNK        -0.5248 
     44 N          26.3126    1.1728   -9.0206 N.am      7 UNK        -0.4718 
     45 CA         27.2252    1.2221  -10.1667 C.3       7 UNK         0.0273 
     46 CB         27.4841   -0.2175  -10.6454 C.3       7 UNK        -0.1935 
     47 C          28.5478    1.9527   -9.8423 C.2       7 UNK         0.5018 
     48 O          29.4868    1.8623  -10.6347 O.2       7 UNK        -0.5186 
     49 N          28.6043    2.6519   -8.6960 N.am      8 UNK        -0.4240 
     50 CA         29.7594    3.3279   -8.0922 C.3       8 UNK         0.0235 
     51 CB         30.3461    4.3956   -9.0434 C.3       8 UNK        -0.2000 
     52 C          30.8221    2.3359   -7.5847 C.2       8 UNK         0.4941 
     53 O          30.6394    1.1203   -7.6708 O.2       8 UNK        -0.5273 
     54 N          31.9360    2.8742   -7.0681 N.am      9 UNK        -0.4262 
     55 CA         33.0814    2.1152   -6.5464 C.3       9 UNK         0.0264 
     56 CB         34.0474    3.0845   -5.8458 C.3       9 UNK        -0.1955 
     57 C          33.8248    1.2703   -7.6024 C.2       9 UNK         0.5031 
     58 O          34.6066    0.3951   -7.2297 O.2       9 UNK        -0.5390 
     59 N          33.5667    1.5336   -8.8915 N.am      10 UNK        -0.4204 
     60 CA         33.9904    0.7040  -10.0208 C.3       10 UNK         0.0237 
     61 CB         33.8137    1.5038  -11.3221 C.3       10 UNK        -0.1985 
     62 C          33.2275   -0.6337  -10.1054 C.2       10 UNK         0.4970 
     63 O          33.7590   -1.5803  -10.6881 O.2       10 UNK        -0.4914 
     64 N          32.0198   -0.6882   -9.5241 N.am      11 UNK        -0.4285 
     65 CA         31.1214   -1.8500   -9.4579 C.3       11 UNK         0.1007 
     66 C          30.5848   -2.3154  -10.8464 C.2       11 UNK         0.5703 
     67 N          29.8767   -3.4364  -10.9048 N.am      11 UNK        -0.7361 
     68 O          30.7573   -1.6571  -11.8707 O.2       11 UNK        -0.4986 
     69 C69        31.6984   -3.0145   -8.5950 C.3       12 UNK        -0.0947 
     70 S70        32.2692   -2.4809   -6.9454 S.3       12 UNK        -0.2240 
     71 C71        30.6993   -2.4891   -6.0368 C.3       12 UNK         0.0194 
     72 H72        25.2723   -6.9017   -3.0225 H         1 UNK         0.0906 
     73 H73        23.7027   -6.5835   -2.2868 H         1 UNK         0.0906 
     74 H74        24.2071   -5.6764   -3.7162 H         1 UNK         0.0906 
     75 H75        27.0360   -5.6281   -2.4039 H         1 UNK         0.3140 
     76 H76        27.0160   -4.1394   -0.0251 H         1 UNK         0.1085 
     77 H77        29.1245   -4.2107   -2.2351 H         1 UNK         0.0836 
     78 H78        28.9631   -5.4100   -0.9862 H         1 UNK         0.0836 
     79 H79        31.7164   -4.1876   -1.3968 H         1 UNK         0.0731 
     80 H80        32.1638   -2.8058   -0.4308 H         1 UNK         0.0731 
     81 H81        31.1212   -3.8556   -3.7130 H         1 UNK         0.1312 
     82 H82        30.6685    0.1067   -5.2645 H         1 UNK         0.1406 
     83 H83        31.1259   -0.5047   -1.0406 H         1 UNK         0.1631 
     84 H84        31.7279    1.9338   -3.0064 H         1 UNK         0.0717 
     85 H85        30.4791    1.6492   -1.8175 H         1 UNK         0.0717 
     86 H86        28.2293    0.4952   -3.0751 H         1 UNK         0.0934 
     87 H87        27.2307    1.8918   -3.3121 H         1 UNK         0.0934 
     88 H88        28.5014    0.6838   -5.7863 H         1 UNK         0.0739 
     89 H89        26.9557   -0.9989   -4.1510 H         1 UNK         0.3093 
     90 H90        25.6839   -3.0948   -6.7264 H         1 UNK         0.0818 
     91 H91        27.8782   -3.6099   -4.6464 H         1 UNK         0.0819 
     92 H92        26.7373   -4.8233   -5.2271 H         1 UNK         0.0819 
     93 H93        27.8810   -4.0854   -6.3345 H         1 UNK         0.0819 
     94 H94        25.5578   -2.8542   -3.8073 H         1 UNK         0.3041 
     95 H95        22.6616   -0.8274   -3.8020 H         1 UNK         0.0784 
     96 H96        21.5095   -2.9635   -4.2622 H         1 UNK         0.0793 
     97 H97        22.6416   -3.8398   -3.2469 H         1 UNK         0.0793 
     98 H98        21.5486   -2.6568   -2.5336 H         1 UNK         0.0793 
     99 H99        24.1191   -2.3861   -1.8127 H         1 UNK         0.3024 
    100 H100       26.5356    0.1429   -1.1766 H         1 UNK         0.1171 
    101 H101       25.6501    0.1161    1.1413 H         1 UNK         0.0786 
    102 H102       24.5816    1.0435    0.1026 H         1 UNK         0.0786 
    103 H103       24.1302   -0.5864    0.5841 H         1 UNK         0.0786 
    104 H104       25.9484   -2.2548    0.2261 H         1 UNK         0.2977 
    105 H105       25.1997    0.3447   -6.1119 H         1 UNK         0.3127 
    106 H106       24.4823    2.9851   -7.0016 H         1 UNK         0.0770 
    107 H107       23.4440    0.2447   -7.9079 H         1 UNK         0.0814 
    108 H108       22.6672    1.7936   -8.2000 H         1 UNK         0.0814 
    109 H109       22.8001    1.1808   -6.5587 H         1 UNK         0.0814 
    110 H110       26.4924    0.4279   -8.3520 H         1 UNK         0.2983 
    111 H111       26.7540    1.7696  -10.9857 H         1 UNK         0.0947 
    112 H112       28.1167   -0.2318  -11.5340 H         1 UNK         0.0806 
    113 H113       26.5540   -0.7232  -10.9043 H         1 UNK         0.0806 
    114 H114       27.9843   -0.8097   -9.8789 H         1 UNK         0.0806 
    115 H115       27.7853    2.6361   -8.0994 H         1 UNK         0.3000 
    116 H116       29.3739    3.8411   -7.2099 H         1 UNK         0.0850 
    117 H117       31.0417    5.0552   -8.5243 H         1 UNK         0.0810 
    118 H118       29.5608    5.0288   -9.4564 H         1 UNK         0.0810 
    119 H119       30.8853    3.9486   -9.8792 H         1 UNK         0.0810 
    120 H120       32.0080    3.8805   -7.0185 H         1 UNK         0.3040 
    121 H121       32.6995    1.4177   -5.7981 H         1 UNK         0.0766 
    122 H122       33.5555    3.6152   -5.0304 H         1 UNK         0.0812 
    123 H123       34.4497    3.8250   -6.5381 H         1 UNK         0.0812 
    124 H124       34.8940    2.5483   -5.4144 H         1 UNK         0.0812 
    125 H125       32.9272    2.2863   -9.0976 H         1 UNK         0.3205 
    126 H126       35.0508    0.4732   -9.8982 H         1 UNK         0.0754 
    127 H127       34.1493    0.9246  -12.1836 H         1 UNK         0.0769 
    128 H128       34.3964    2.4252  -11.3058 H         1 UNK         0.0769 
    129 H129       32.7689    1.7673  -11.4946 H         1 UNK         0.0769 
    130 H130       31.6632    0.1338   -9.0480 H         1 UNK         0.2981 
    131 H131       30.2382   -1.4707   -8.9435 H         1 UNK         0.0541 
    132 H132       29.6978   -3.9882  -10.0815 H         1 UNK         0.3459 
    133 H133       29.5129   -3.7351  -11.7959 H         1 UNK         0.3459 
    134 H134       30.9577   -3.8026   -8.4541 H         1 UNK         0.0612 
    135 H135       32.5416   -3.4817   -9.1060 H         1 UNK         0.0612 
    136 H136       30.3108   -3.5075   -5.9976 H         1 UNK         0.0624 
    137 H137       29.9631   -1.8938   -6.5790 H         1 UNK         0.0624 
@<TRIPOS>BOND
     1    1    2 1    
     2    1   72 1    
     3    1   73 1    
     4    1   74 1    
     5    2    3 2    
     6    2    4 am   BACKBONE|DICT|INTERRES
     7    4    5 1    
     8    4   75 1    
     9    5    6 1    
    10    5   35 1    
    11    5   76 1    
    12    6    7 1    
    13    6   77 1    
    14    6   78 1    
    15    7    8 1    
    16    8    9 1    
    17    8   79 1    
    18    8   80 1    
    19    9   10 ar   
    20    9   14 ar   
    21   10   11 ar   
    22   10   81 1    
    23   11   12 ar   
    24   11   71 1    
    25   12   13 ar   
    26   12   82 1    
    27   13   14 ar   
    28   13   15 1    
    29   14   83 1    
    30   15   16 1    
    31   15   84 1    
    32   15   85 1    
    33   16   17 1    
    34   17   18 1    
    35   17   86 1    
    36   17   87 1    
    37   18   19 1    
    38   18   37 1    
    39   18   88 1    
    40   19   20 am   BACKBONE|DICT|INTERRES
    41   19   89 1    
    42   20   21 2    
    43   20   22 1    
    44   22   23 1    
    45   22   24 1    
    46   22   90 1    
    47   23   91 1    
    48   23   92 1    
    49   23   93 1    
    50   24   25 am   BACKBONE|DICT|INTERRES
    51   24   94 1    
    52   25   26 2    
    53   25   27 1    
    54   27   28 1    
    55   27   29 1    
    56   27   95 1    
    57   28   96 1    
    58   28   97 1    
    59   28   98 1    
    60   29   30 am   BACKBONE|DICT|INTERRES
    61   29   99 1    
    62   30   31 2    
    63   30   32 1    
    64   32   33 1    
    65   32   34 1    
    66   32  100 1    
    67   33  101 1    
    68   33  102 1    
    69   33  103 1    
    70   34   35 am   BACKBONE|DICT|INTERRES
    71   34  104 1    
    72   35   36 2    
    73   37   38 2    
    74   37   39 am   BACKBONE|DICT|INTERRES
    75   39   40 1    
    76   39  105 1    
    77   40   41 1    
    78   40   42 1    
    79   40  106 1    
    80   41  107 1    
    81   41  108 1    
    82   41  109 1    
    83   42   43 2    
    84   42   44 am   BACKBONE|DICT|INTERRES
    85   44   45 1    
    86   44  110 1    
    87   45   46 1    
    88   45   47 1    
    89   45  111 1    
    90   46  112 1    
    91   46  113 1    
    92   46  114 1    
    93   47   48 2    
    94   47   49 am   BACKBONE|DICT|INTERRES
    95   49   50 1    
    96   49  115 1    
    97   50   51 1    
    98   50   52 1    
    99   50  116 1    
   100   51  117 1    
   101   51  118 1    
   102   51  119 1    
   103   52   53 2    
   104   52   54 am   BACKBONE|DICT|INTERRES
   105   54   55 1    
   106   54  120 1    
   107   55   56 1    
   108   55   57 1    
   109   55  121 1    
   110   56  122 1    
   111   56  123 1    
   112   56  124 1    
   113   57   58 2    
   114   57   59 am   BACKBONE|DICT|INTERRES
   115   59   60 1    
   116   59  125 1    
   117   60   61 1    
   118   60   62 1    
   119   60  126 1    
   120   61  127 1    
   121   61  128 1    
   122   61  129 1    
   123   62   63 2    
   124   62   64 am   BACKBONE|DICT|INTERRES
   125   64   65 1    
   126   64  130 1    
   127   65   66 1    
   128   65   69 1    
   129   65  131 1    
   130   66   67 am   BACKBONE|DICT|INTERRES
   131   66   68 2    
   132   67  132 1    
   133   67  133 1    
   134   69   70 1    
   135   69  134 1    
   136   69  135 1    
   137   70   71 1    
   138   71  136 1    
   139   71  137 1    
@<TRIPOS>SUBSTRUCTURE
     1 UNK         1 GROUP             0       ****    0 ROOT    
