@<TRIPOS>MOLECULE
3R137
137   139    1
SMALL
USER_CHARGES


@<TRIPOS>ATOM
      1 CA         23.6225   -7.4646    0.1186 C.3       0 UNK        -0.2020 
      2 C          24.0047   -6.6191   -1.0873 C.2       0 UNK         0.4855 
      3 O          23.7093   -7.0044   -2.2190 O.2       0 UNK        -0.5197 
      4 N          24.6628   -5.4756   -0.8501 N.am      1 UNK        -0.4892 
      5 CA         25.0787   -4.4893   -1.8558 C.3       1 UNK         0.0835 
      6 C6         26.1178   -5.0595   -2.8651 C.3       12 UNK        -0.0855 
      7 S7         27.2248   -3.7655   -3.5241 S.3       12 UNK        -0.2931 
      8 C8         28.8449   -4.3960   -2.9913 C.3       12 UNK         0.0378 
      9 C9         29.9740   -3.4653   -3.4060 C.ar      12 UNK        -0.0802 
     10 C10        30.3827   -3.4106   -4.7417 C.ar      12 UNK        -0.0944 
     11 C11        31.4461   -2.5891   -5.1266 C.ar      12 UNK        -0.0787 
     12 C12        32.1014   -1.8152   -4.1633 C.ar      12 UNK        -0.0862 
     13 C13        31.6979   -1.8564   -2.8245 C.ar      12 UNK        -0.0733 
     14 C14        30.6340   -2.6846   -2.4522 C.ar      12 UNK        -0.0832 
     15 C15        32.4200   -1.0208   -1.7752 C.3       12 UNK         0.0240 
     16 S16        31.3593    0.2906   -1.0856 S.3       12 UNK        -0.2522 
     17 C17        31.0850    1.3532   -2.5437 C.3       12 UNK        -0.0967 
     18 CA         29.7408    1.0402   -3.2563 C.3       5 UNK         0.0660 
     19 N          28.5630    1.1601   -2.3888 N.am      5 UNK        -0.4015 
     20 C          28.0762    2.2723   -1.8235 C.2       4 UNK         0.4946 
     21 O          28.5764    3.3916   -1.9498 O.2       4 UNK        -0.5353 
     22 CA         26.7843    2.0933   -0.9997 C.3       4 UNK         0.0277 
     23 CB         26.4810    3.3129   -0.1088 C.3       4 UNK        -0.1981 
     24 N          25.6210    1.8282   -1.8531 N.am      4 UNK        -0.4209 
     25 C          25.3888    0.6852   -2.5101 C.2       3 UNK         0.4942 
     26 O          26.1379   -0.2963   -2.4613 O.2       3 UNK        -0.5208 
     27 CA         24.1306    0.6356   -3.3851 C.3       3 UNK         0.0250 
     28 CB         24.2642    1.5468   -4.6198 C.3       3 UNK        -0.1990 
     29 N          23.9421   -0.7475   -3.8026 N.am      3 UNK        -0.4232 
     30 C          22.8159   -1.3065   -4.2558 C.2       2 UNK         0.4993 
     31 O          21.7631   -0.6913   -4.4288 O.2       2 UNK        -0.5286 
     32 CA         22.8723   -2.8130   -4.5663 C.3       2 UNK         0.0209 
     33 CB         23.0983   -3.0421   -6.0699 C.3       2 UNK        -0.1931 
     34 N          23.9162   -3.5153   -3.8111 N.am      2 UNK        -0.4546 
     35 C          23.8520   -3.7994   -2.5025 C.2       1 UNK         0.5154 
     36 O          22.8780   -3.5168   -1.7994 O.2       1 UNK        -0.5181 
     37 C          29.5551    1.8266   -4.5700 C.2       5 UNK         0.5014 
     38 O          30.4411    2.5784   -4.9796 O.2       5 UNK        -0.5248 
     39 N          28.3956    1.6276   -5.2079 N.am      6 UNK        -0.4434 
     40 CA         28.0230    2.2312   -6.4879 C.3       6 UNK         0.0363 
     41 CB         27.3347    3.5887   -6.2442 C.3       6 UNK        -0.1936 
     42 C          27.1631    1.2587   -7.3122 C.2       6 UNK         0.5081 
     43 O          26.2894    1.6961   -8.0611 O.2       6 UNK        -0.5248 
     44 N          27.4016   -0.0511   -7.1437 N.am      7 UNK        -0.4718 
     45 CA         26.6728   -1.1252   -7.8289 C.3       7 UNK         0.0273 
     46 CB         26.9545   -2.4543   -7.1116 C.3       7 UNK        -0.1935 
     47 C          27.0100   -1.2353   -9.3274 C.2       7 UNK         0.5018 
     48 O          26.1992   -1.7546  -10.0952 O.2       7 UNK        -0.5186 
     49 N          28.1883   -0.7380   -9.7115 N.am      8 UNK        -0.4240 
     50 CA         28.6880   -0.6265  -11.0739 C.3       8 UNK         0.0235 
     51 CB         29.4110   -1.9277  -11.4674 C.3       8 UNK        -0.2000 
     52 C          29.6436    0.5700  -11.1148 C.2       8 UNK         0.4941 
     53 O          30.1216    1.0059  -10.0638 O.2       8 UNK        -0.5273 
     54 N          29.9527    1.0523  -12.3256 N.am      9 UNK        -0.4262 
     55 CA         30.8747    2.1716  -12.5686 C.3       9 UNK         0.0264 
     56 CB         30.8475    2.5332  -14.0629 C.3       9 UNK        -0.1955 
     57 C          32.3228    1.9165  -12.1025 C.2       9 UNK         0.5031 
     58 O          33.0590    2.8755  -11.8682 O.2       9 UNK        -0.5390 
     59 N          32.7006    0.6379  -11.9709 N.am      10 UNK        -0.4204 
     60 CA         33.9868    0.1897  -11.4394 C.3       10 UNK         0.0237 
     61 CB         34.2182   -1.2691  -11.8688 C.3       10 UNK        -0.1985 
     62 C          34.1070    0.3196   -9.9084 C.2       10 UNK         0.4970 
     63 O          35.2328    0.2997   -9.4084 O.2       10 UNK        -0.4914 
     64 N          32.9803    0.4162   -9.1867 N.am      11 UNK        -0.4285 
     65 CA         32.9554    0.5296   -7.7212 C.3       11 UNK         0.1007 
     66 C          33.4326    1.9233   -7.2302 C.2       11 UNK         0.5703 
     67 N          34.1398    1.9777   -6.1089 N.am      11 UNK        -0.7361 
     68 O          33.1467    2.9532   -7.8380 O.2       11 UNK        -0.4986 
     69 C69        31.5662    0.1828   -7.1248 C.3       12 UNK        -0.0947 
     70 S70        30.9330   -1.4546   -7.6185 S.3       12 UNK        -0.2240 
     71 C71        31.9121   -2.5795   -6.5752 C.3       12 UNK         0.0194 
     72 H72        22.5403   -7.5839    0.1647 H         1 UNK         0.0906 
     73 H73        24.0712   -8.4546    0.0400 H         1 UNK         0.0906 
     74 H74        23.9541   -7.0160    1.0549 H         1 UNK         0.0906 
     75 H75        24.8411   -5.2064    0.1080 H         1 UNK         0.3140 
     76 H76        25.5730   -3.7029   -1.2820 H         1 UNK         0.1085 
     77 H77        26.7317   -5.8108   -2.3658 H         1 UNK         0.0836 
     78 H78        25.6379   -5.5933   -3.6877 H         1 UNK         0.0836 
     79 H79        28.8393   -4.5328   -1.9086 H         1 UNK         0.0731 
     80 H80        29.0107   -5.3822   -3.4278 H         1 UNK         0.0731 
     81 H81        29.8770   -4.0168   -5.4811 H         1 UNK         0.1312 
     82 H82        32.9315   -1.1872   -4.4557 H         1 UNK         0.1406 
     83 H83        30.3245   -2.7207   -1.4162 H         1 UNK         0.1631 
     84 H84        33.3263   -0.5723   -2.1851 H         1 UNK         0.0717 
     85 H85        32.7440   -1.6730   -0.9630 H         1 UNK         0.0717 
     86 H86        31.1132    2.3953   -2.2207 H         1 UNK         0.0934 
     87 H87        31.9241    1.2313   -3.2314 H         1 UNK         0.0934 
     88 H88        29.7693   -0.0064   -3.5607 H         1 UNK         0.0739 
     89 H89        28.0124    0.3141   -2.2722 H         1 UNK         0.3093 
     90 H90        26.9338    1.2342   -0.3415 H         1 UNK         0.0818 
     91 H91        27.3225    3.5331    0.5496 H         1 UNK         0.0819 
     92 H92        26.2867    4.2091   -0.6995 H         1 UNK         0.0819 
     93 H93        25.6134    3.1348    0.5267 H         1 UNK         0.0819 
     94 H94        24.9713    2.5929   -1.9693 H         1 UNK         0.3041 
     95 H95        23.2766    0.9473   -2.7802 H         1 UNK         0.0784 
     96 H96        23.3602    1.5264   -5.2285 H         1 UNK         0.0793 
     97 H97        24.4323    2.5856   -4.3343 H         1 UNK         0.0793 
     98 H98        25.0947    1.2387   -5.2537 H         1 UNK         0.0793 
     99 H99        24.7535   -1.3310   -3.6343 H         1 UNK         0.3024 
    100 H100       21.9037   -3.2387   -4.2935 H         1 UNK         0.1171 
    101 H101       24.0502   -2.6285   -6.4035 H         1 UNK         0.0786 
    102 H102       22.3132   -2.5654   -6.6586 H         1 UNK         0.0786 
    103 H103       23.0869   -4.1038   -6.3168 H         1 UNK         0.0786 
    104 H104       24.7614   -3.7604   -4.3092 H         1 UNK         0.2977 
    105 H105       27.7152    1.0035   -4.7967 H         1 UNK         0.3127 
    106 H106       28.9231    2.4083   -7.0806 H         1 UNK         0.0770 
    107 H107       26.4076    3.4751   -5.6827 H         1 UNK         0.0814 
    108 H108       27.0903    4.0810   -7.1863 H         1 UNK         0.0814 
    109 H109       27.9821    4.2660   -5.6869 H         1 UNK         0.0814 
    110 H110       28.1633   -0.3352   -6.5442 H         1 UNK         0.2983 
    111 H111       25.6037   -0.9141   -7.7529 H         1 UNK         0.0947 
    112 H112       26.4156   -3.2770   -7.5835 H         1 UNK         0.0806 
    113 H113       26.6332   -2.4125   -6.0717 H         1 UNK         0.0806 
    114 H114       28.0154   -2.7075   -7.1262 H         1 UNK         0.0806 
    115 H115       28.7825   -0.2910   -9.0234 H         1 UNK         0.3000 
    116 H116       27.8560   -0.4355  -11.7552 H         1 UNK         0.0850 
    117 H117       30.2585   -2.1309  -10.8107 H         1 UNK         0.0810 
    118 H118       28.7386   -2.7842  -11.4153 H         1 UNK         0.0810 
    119 H119       29.7896   -1.8784  -12.4889 H         1 UNK         0.0810 
    120 H120       29.5239    0.6359  -13.1405 H         1 UNK         0.3040 
    121 H121       30.5048    3.0293  -12.0027 H         1 UNK         0.0766 
    122 H122       29.8450    2.8136  -14.3865 H         1 UNK         0.0812 
    123 H123       31.1839    1.7035  -14.6859 H         1 UNK         0.0812 
    124 H124       31.5008    3.3819  -14.2712 H         1 UNK         0.0812 
    125 H125       32.0301   -0.0790  -12.2044 H         1 UNK         0.3205 
    126 H126       34.7740    0.8046  -11.8811 H         1 UNK         0.0754 
    127 H127       35.1877   -1.6297  -11.5218 H         1 UNK         0.0769 
    128 H128       34.2078   -1.3705  -12.9543 H         1 UNK         0.0769 
    129 H129       33.4578   -1.9363  -11.4603 H         1 UNK         0.0769 
    130 H130       32.0815    0.4940   -9.6483 H         1 UNK         0.2981 
    131 H131       33.6648   -0.2049   -7.3364 H         1 UNK         0.0541 
    132 H132       34.4436    2.8766   -5.7695 H         1 UNK         0.3459 
    133 H133       34.3897    1.1426   -5.6044 H         1 UNK         0.3459 
    134 H134       30.8312    0.9269   -7.4340 H         1 UNK         0.0612 
    135 H135       31.5979    0.2268   -6.0365 H         1 UNK         0.0612 
    136 H136       32.9694   -2.3211   -6.6383 H         1 UNK         0.0624 
    137 H137       31.8279   -3.5863   -6.9867 H         1 UNK         0.0624 
@<TRIPOS>BOND
     1    1    2 1    
     2    1   72 1    
     3    1   73 1    
     4    1   74 1    
     5    2    3 2    
     6    2    4 am   BACKBONE|DICT|INTERRES
     7    4    5 1    
     8    4   75 1    
     9    5    6 1    
    10    5   35 1    
    11    5   76 1    
    12    6    7 1    
    13    6   77 1    
    14    6   78 1    
    15    7    8 1    
    16    8    9 1    
    17    8   79 1    
    18    8   80 1    
    19    9   10 ar   
    20    9   14 ar   
    21   10   11 ar   
    22   10   81 1    
    23   11   12 ar   
    24   11   71 1    
    25   12   13 ar   
    26   12   82 1    
    27   13   14 ar   
    28   13   15 1    
    29   14   83 1    
    30   15   16 1    
    31   15   84 1    
    32   15   85 1    
    33   16   17 1    
    34   17   18 1    
    35   17   86 1    
    36   17   87 1    
    37   18   19 1    
    38   18   37 1    
    39   18   88 1    
    40   19   20 am   BACKBONE|DICT|INTERRES
    41   19   89 1    
    42   20   21 2    
    43   20   22 1    
    44   22   23 1    
    45   22   24 1    
    46   22   90 1    
    47   23   91 1    
    48   23   92 1    
    49   23   93 1    
    50   24   25 am   BACKBONE|DICT|INTERRES
    51   24   94 1    
    52   25   26 2    
    53   25   27 1    
    54   27   28 1    
    55   27   29 1    
    56   27   95 1    
    57   28   96 1    
    58   28   97 1    
    59   28   98 1    
    60   29   30 am   BACKBONE|DICT|INTERRES
    61   29   99 1    
    62   30   31 2    
    63   30   32 1    
    64   32   33 1    
    65   32   34 1    
    66   32  100 1    
    67   33  101 1    
    68   33  102 1    
    69   33  103 1    
    70   34   35 am   BACKBONE|DICT|INTERRES
    71   34  104 1    
    72   35   36 2    
    73   37   38 2    
    74   37   39 am   BACKBONE|DICT|INTERRES
    75   39   40 1    
    76   39  105 1    
    77   40   41 1    
    78   40   42 1    
    79   40  106 1    
    80   41  107 1    
    81   41  108 1    
    82   41  109 1    
    83   42   43 2    
    84   42   44 am   BACKBONE|DICT|INTERRES
    85   44   45 1    
    86   44  110 1    
    87   45   46 1    
    88   45   47 1    
    89   45  111 1    
    90   46  112 1    
    91   46  113 1    
    92   46  114 1    
    93   47   48 2    
    94   47   49 am   BACKBONE|DICT|INTERRES
    95   49   50 1    
    96   49  115 1    
    97   50   51 1    
    98   50   52 1    
    99   50  116 1    
   100   51  117 1    
   101   51  118 1    
   102   51  119 1    
   103   52   53 2    
   104   52   54 am   BACKBONE|DICT|INTERRES
   105   54   55 1    
   106   54  120 1    
   107   55   56 1    
   108   55   57 1    
   109   55  121 1    
   110   56  122 1    
   111   56  123 1    
   112   56  124 1    
   113   57   58 2    
   114   57   59 am   BACKBONE|DICT|INTERRES
   115   59   60 1    
   116   59  125 1    
   117   60   61 1    
   118   60   62 1    
   119   60  126 1    
   120   61  127 1    
   121   61  128 1    
   122   61  129 1    
   123   62   63 2    
   124   62   64 am   BACKBONE|DICT|INTERRES
   125   64   65 1    
   126   64  130 1    
   127   65   66 1    
   128   65   69 1    
   129   65  131 1    
   130   66   67 am   BACKBONE|DICT|INTERRES
   131   66   68 2    
   132   67  132 1    
   133   67  133 1    
   134   69   70 1    
   135   69  134 1    
   136   69  135 1    
   137   70   71 1    
   138   71  136 1    
   139   71  137 1    
@<TRIPOS>SUBSTRUCTURE
     1 UNK         1 GROUP             0       ****    0 ROOT    
