@<TRIPOS>MOLECULE
3R137
137   139    1
SMALL
USER_CHARGES


@<TRIPOS>ATOM
      1 CA         28.9902    1.4429   -1.8429 C.3       0 UNK        -0.2020 
      2 C          28.3617    0.0832   -2.1059 C.2       0 UNK         0.4855 
      3 O          27.4338   -0.0141   -2.9103 O.2       0 UNK        -0.5197 
      4 N          28.8724   -0.9607   -1.4371 N.am      1 UNK        -0.4892 
      5 CA         28.4538   -2.3638   -1.5518 C.3       1 UNK         0.0835 
      6 C6         29.2628   -3.2881   -0.6067 C.3       12 UNK        -0.0855 
      7 S7         31.0722   -3.1696   -0.8291 S.3       12 UNK        -0.2931 
      8 C8         31.4672   -4.7364   -1.6704 C.3       12 UNK         0.0378 
      9 C9         31.3113   -4.6126   -3.1780 C.ar      12 UNK        -0.0802 
     10 C10        32.4029   -4.2226   -3.9608 C.ar      12 UNK        -0.0944 
     11 C11        32.2756   -4.1086   -5.3475 C.ar      12 UNK        -0.0787 
     12 C12        31.0421   -4.3707   -5.9488 C.ar      12 UNK        -0.0862 
     13 C13        29.9390   -4.7448   -5.1762 C.ar      12 UNK        -0.0733 
     14 C14        30.0850   -4.8867   -3.7922 C.ar      12 UNK        -0.0832 
     15 C15        28.5885   -4.9724   -5.8428 C.3       12 UNK         0.0240 
     16 S16        27.3247   -3.7904   -5.2696 S.3       12 UNK        -0.2522 
     17 C17        28.0956   -2.1689   -5.6135 C.3       12 UNK        -0.0967 
     18 CA         27.3105   -1.3037   -6.6260 C.3       5 UNK         0.0660 
     19 N          25.8779   -1.2189   -6.3242 N.am      5 UNK        -0.4015 
     20 C          24.9602   -0.5882   -7.0724 C.2       4 UNK         0.4946 
     21 O          25.2216    0.0116   -8.1165 O.2       4 UNK        -0.5353 
     22 CA         23.5140   -0.5967   -6.5534 C.3       4 UNK         0.0277 
     23 CB         22.7359   -1.7752   -7.1583 C.3       4 UNK        -0.1981 
     24 N          23.4286   -0.6560   -5.0920 N.am      4 UNK        -0.4209 
     25 C          23.8209    0.3104   -4.2528 C.2       3 UNK         0.4942 
     26 O          24.2820    1.3877   -4.6276 O.2       3 UNK        -0.5208 
     27 CA         23.6967    0.0284   -2.7449 C.3       3 UNK         0.0250 
     28 CB         22.2358    0.1567   -2.2715 C.3       3 UNK        -0.1990 
     29 N          24.2971   -1.2411   -2.3087 N.am      3 UNK        -0.4232 
     30 C          23.9553   -2.5012   -2.6159 C.2       2 UNK         0.4993 
     31 O          23.0168   -2.7885   -3.3618 O.2       2 UNK        -0.5286 
     32 CA         24.8284   -3.6244   -2.0167 C.3       2 UNK         0.0209 
     33 CB         24.5597   -4.9923   -2.6730 C.3       2 UNK        -0.1931 
     34 N          26.2634   -3.3338   -2.1122 N.am      2 UNK        -0.4546 
     35 C          26.9464   -2.5420   -1.2764 C.2       1 UNK         0.5154 
     36 O          26.4268   -1.9651   -0.3177 O.2       1 UNK        -0.5181 
     37 C          27.9618    0.0877   -6.7491 C.2       5 UNK         0.5014 
     38 O          28.8005    0.2798   -7.6294 O.2       5 UNK        -0.5248 
     39 N          27.5205    1.0423   -5.9143 N.am      6 UNK        -0.4434 
     40 CA         27.9355    2.4477   -5.9288 C.3       6 UNK         0.0363 
     41 CB         27.2247    3.2013   -4.7939 C.3       6 UNK        -0.1936 
     42 C          27.6760    3.1637   -7.2677 C.2       6 UNK         0.5081 
     43 O          28.4301    4.0715   -7.6162 O.2       6 UNK        -0.5248 
     44 N          26.6291    2.7463   -7.9913 N.am      7 UNK        -0.4718 
     45 CA         26.3067    3.2394   -9.3289 C.3       7 UNK         0.0273 
     46 CB         24.7792    3.2874   -9.5003 C.3       7 UNK        -0.1935 
     47 C          26.9464    2.3627  -10.4154 C.2       7 UNK         0.5018 
     48 O          27.4699    2.9014  -11.3912 O.2       7 UNK        -0.5186 
     49 N          26.8722    1.0350  -10.2431 N.am      8 UNK        -0.4240 
     50 CA         27.3023    0.0474  -11.2346 C.3       8 UNK         0.0235 
     51 CB         26.7154   -1.3270  -10.8738 C.3       8 UNK        -0.2000 
     52 C          28.8262   -0.0512  -11.4173 C.2       8 UNK         0.4941 
     53 O          29.2754   -0.2151  -12.5530 O.2       8 UNK        -0.5273 
     54 N          29.5863    0.0144  -10.3162 N.am      9 UNK        -0.4262 
     55 CA         31.0362   -0.2160  -10.2996 C.3       9 UNK         0.0264 
     56 CB         31.3012   -1.6597   -9.8397 C.3       9 UNK        -0.1955 
     57 C          31.8178    0.7864   -9.4327 C.2       9 UNK         0.5031 
     58 O          33.0356    0.8824   -9.5969 O.2       9 UNK        -0.5390 
     59 N          31.1330    1.5051   -8.5317 N.am      10 UNK        -0.4204 
     60 CA         31.6465    2.4627   -7.5452 C.3       10 UNK         0.0237 
     61 CB         32.4652    3.6054   -8.1819 C.3       10 UNK        -0.1985 
     62 C          32.3889    1.7665   -6.3960 C.2       10 UNK         0.4970 
     63 O          31.9045    1.8005   -5.2646 O.2       10 UNK        -0.4914 
     64 N          33.5286    1.1398   -6.7141 N.am      11 UNK        -0.4285 
     65 CA         34.3659    0.3293   -5.8092 C.3       11 UNK         0.1007 
     66 C          34.9793    1.1030   -4.6007 C.2       11 UNK         0.5703 
     67 N          35.0838    2.4260   -4.6519 N.am      11 UNK        -0.7361 
     68 O          35.4040    0.5004   -3.6173 O.2       11 UNK        -0.4986 
     69 C69        33.6708   -1.0020   -5.3986 C.3       12 UNK        -0.0947 
     70 S70        33.2862   -2.0248   -6.8587 S.3       12 UNK        -0.2240 
     71 C71        33.4667   -3.7110   -6.2051 C.3       12 UNK         0.0194 
     72 H72        29.7564    1.3963   -1.0692 H         1 UNK         0.0906 
     73 H73        29.4526    1.8222   -2.7542 H         1 UNK         0.0906 
     74 H74        28.2285    2.1527   -1.5219 H         1 UNK         0.0906 
     75 H75        29.6342   -0.8045   -0.7925 H         1 UNK         0.3140 
     76 H76        28.6551   -2.6661   -2.5800 H         1 UNK         0.1085 
     77 H77        29.0487   -3.0400    0.4352 H         1 UNK         0.0836 
     78 H78        28.9510   -4.3269   -0.7304 H         1 UNK         0.0836 
     79 H79        32.4969   -5.0066   -1.4306 H         1 UNK         0.0731 
     80 H80        30.8503   -5.5482   -1.2825 H         1 UNK         0.0731 
     81 H81        33.3526   -4.0096   -3.4893 H         1 UNK         0.1312 
     82 H82        30.9415   -4.2653   -7.0206 H         1 UNK         0.1406 
     83 H83        29.2368   -5.1882   -3.1933 H         1 UNK         0.1631 
     84 H84        28.2488   -5.9866   -5.6286 H         1 UNK         0.0717 
     85 H85        28.6703   -4.8979   -6.9284 H         1 UNK         0.0717 
     86 H86        28.1979   -1.6499   -4.6626 H         1 UNK         0.0934 
     87 H87        29.1148   -2.3095   -5.9761 H         1 UNK         0.0934 
     88 H88        27.3936   -1.7850   -7.6015 H         1 UNK         0.0739 
     89 H89        25.5727   -1.6936   -5.4879 H         1 UNK         0.3093 
     90 H90        23.0436    0.3329   -6.8808 H         1 UNK         0.0818 
     91 H91        21.6855   -1.7469   -6.8684 H         1 UNK         0.0819 
     92 H92        22.7713   -1.7478   -8.2485 H         1 UNK         0.0819 
     93 H93        23.1455   -2.7354   -6.8415 H         1 UNK         0.0819 
     94 H94        23.0837   -1.5181   -4.6720 H         1 UNK         0.3041 
     95 H95        24.2719    0.8061   -2.2394 H         1 UNK         0.0784 
     96 H96        21.8292    1.1358   -2.5282 H         1 UNK         0.0793 
     97 H97        21.5881   -0.5920   -2.7284 H         1 UNK         0.0793 
     98 H98        22.1603    0.0486   -1.1895 H         1 UNK         0.0793 
     99 H99        25.1046   -1.1383   -1.7024 H         1 UNK         0.3024 
    100 H100       24.5533   -3.7036   -0.9622 H         1 UNK         0.1171 
    101 H101       23.5151   -5.2849   -2.5576 H         1 UNK         0.0786 
    102 H102       25.1639   -5.7772   -2.2178 H         1 UNK         0.0786 
    103 H103       24.7781   -4.9773   -3.7416 H         1 UNK         0.0786 
    104 H104       26.7385   -3.7278   -2.9138 H         1 UNK         0.2977 
    105 H105       26.8424    0.7860   -5.2076 H         1 UNK         0.3127 
    106 H106       29.0076    2.4670   -5.7301 H         1 UNK         0.0770 
    107 H107       26.1516    3.2779   -4.9725 H         1 UNK         0.0814 
    108 H108       27.6111    4.2170   -4.7005 H         1 UNK         0.0814 
    109 H109       27.3648    2.7103   -3.8326 H         1 UNK         0.0814 
    110 H110       26.0794    1.9673   -7.6491 H         1 UNK         0.2983 
    111 H111       26.6886    4.2556   -9.4521 H         1 UNK         0.0947 
    112 H112       24.3243    2.3023   -9.3884 H         1 UNK         0.0806 
    113 H113       24.3206    3.9518   -8.7679 H         1 UNK         0.0806 
    114 H114       24.5099    3.6605  -10.4893 H         1 UNK         0.0806 
    115 H115       26.3792    0.6778   -9.4274 H         1 UNK         0.3000 
    116 H116       26.8801    0.3454  -12.1969 H         1 UNK         0.0850 
    117 H117       26.9709   -2.0712  -11.6294 H         1 UNK         0.0810 
    118 H118       25.6276   -1.2901  -10.8095 H         1 UNK         0.0810 
    119 H119       27.0941   -1.6896   -9.9188 H         1 UNK         0.0810 
    120 H120       29.1314    0.1292   -9.4129 H         1 UNK         0.3040 
    121 H121       31.4390   -0.1040  -11.3084 H         1 UNK         0.0766 
    122 H122       32.3704   -1.8746   -9.8173 H         1 UNK         0.0812 
    123 H123       30.8413   -2.3818  -10.5144 H         1 UNK         0.0812 
    124 H124       30.9080   -1.8388   -8.8380 H         1 UNK         0.0812 
    125 H125       30.1634    1.2400   -8.3768 H         1 UNK         0.3205 
    126 H126       30.7662    2.9275   -7.1058 H         1 UNK         0.0754 
    127 H127       32.7313    4.3517   -7.4324 H         1 UNK         0.0769 
    128 H128       31.8893    4.1157   -8.9542 H         1 UNK         0.0769 
    129 H129       33.3945    3.2586   -8.6333 H         1 UNK         0.0769 
    130 H130       33.7906    1.1277   -7.6940 H         1 UNK         0.2981 
    131 H131       35.2377    0.0572   -6.4049 H         1 UNK         0.0541 
    132 H132       34.7524    2.9332   -5.4563 H         1 UNK         0.3459 
    133 H133       35.4923    2.9194   -3.8741 H         1 UNK         0.3459 
    134 H134       32.7499   -0.8128   -4.8449 H         1 UNK         0.0612 
    135 H135       34.3142   -1.5826   -4.7358 H         1 UNK         0.0612 
    136 H136       34.4020   -3.7960   -5.6498 H         1 UNK         0.0624 
    137 H137       33.5472   -4.4026   -7.0449 H         1 UNK         0.0624 
@<TRIPOS>BOND
     1    1    2 1    
     2    1   72 1    
     3    1   73 1    
     4    1   74 1    
     5    2    3 2    
     6    2    4 am   BACKBONE|DICT|INTERRES
     7    4    5 1    
     8    4   75 1    
     9    5    6 1    
    10    5   35 1    
    11    5   76 1    
    12    6    7 1    
    13    6   77 1    
    14    6   78 1    
    15    7    8 1    
    16    8    9 1    
    17    8   79 1    
    18    8   80 1    
    19    9   10 ar   
    20    9   14 ar   
    21   10   11 ar   
    22   10   81 1    
    23   11   12 ar   
    24   11   71 1    
    25   12   13 ar   
    26   12   82 1    
    27   13   14 ar   
    28   13   15 1    
    29   14   83 1    
    30   15   16 1    
    31   15   84 1    
    32   15   85 1    
    33   16   17 1    
    34   17   18 1    
    35   17   86 1    
    36   17   87 1    
    37   18   19 1    
    38   18   37 1    
    39   18   88 1    
    40   19   20 am   BACKBONE|DICT|INTERRES
    41   19   89 1    
    42   20   21 2    
    43   20   22 1    
    44   22   23 1    
    45   22   24 1    
    46   22   90 1    
    47   23   91 1    
    48   23   92 1    
    49   23   93 1    
    50   24   25 am   BACKBONE|DICT|INTERRES
    51   24   94 1    
    52   25   26 2    
    53   25   27 1    
    54   27   28 1    
    55   27   29 1    
    56   27   95 1    
    57   28   96 1    
    58   28   97 1    
    59   28   98 1    
    60   29   30 am   BACKBONE|DICT|INTERRES
    61   29   99 1    
    62   30   31 2    
    63   30   32 1    
    64   32   33 1    
    65   32   34 1    
    66   32  100 1    
    67   33  101 1    
    68   33  102 1    
    69   33  103 1    
    70   34   35 am   BACKBONE|DICT|INTERRES
    71   34  104 1    
    72   35   36 2    
    73   37   38 2    
    74   37   39 am   BACKBONE|DICT|INTERRES
    75   39   40 1    
    76   39  105 1    
    77   40   41 1    
    78   40   42 1    
    79   40  106 1    
    80   41  107 1    
    81   41  108 1    
    82   41  109 1    
    83   42   43 2    
    84   42   44 am   BACKBONE|DICT|INTERRES
    85   44   45 1    
    86   44  110 1    
    87   45   46 1    
    88   45   47 1    
    89   45  111 1    
    90   46  112 1    
    91   46  113 1    
    92   46  114 1    
    93   47   48 2    
    94   47   49 am   BACKBONE|DICT|INTERRES
    95   49   50 1    
    96   49  115 1    
    97   50   51 1    
    98   50   52 1    
    99   50  116 1    
   100   51  117 1    
   101   51  118 1    
   102   51  119 1    
   103   52   53 2    
   104   52   54 am   BACKBONE|DICT|INTERRES
   105   54   55 1    
   106   54  120 1    
   107   55   56 1    
   108   55   57 1    
   109   55  121 1    
   110   56  122 1    
   111   56  123 1    
   112   56  124 1    
   113   57   58 2    
   114   57   59 am   BACKBONE|DICT|INTERRES
   115   59   60 1    
   116   59  125 1    
   117   60   61 1    
   118   60   62 1    
   119   60  126 1    
   120   61  127 1    
   121   61  128 1    
   122   61  129 1    
   123   62   63 2    
   124   62   64 am   BACKBONE|DICT|INTERRES
   125   64   65 1    
   126   64  130 1    
   127   65   66 1    
   128   65   69 1    
   129   65  131 1    
   130   66   67 am   BACKBONE|DICT|INTERRES
   131   66   68 2    
   132   67  132 1    
   133   67  133 1    
   134   69   70 1    
   135   69  134 1    
   136   69  135 1    
   137   70   71 1    
   138   71  136 1    
   139   71  137 1    
@<TRIPOS>SUBSTRUCTURE
     1 UNK         1 GROUP             0       ****    0 ROOT    
