@<TRIPOS>MOLECULE
3R137
137   139    1
SMALL
USER_CHARGES


@<TRIPOS>ATOM
      1 CA         26.2099   -7.0475    1.1590 C.3       0 UNK        -0.2020 
      2 C          26.7315   -5.8058    0.4522 C.2       0 UNK         0.4855 
      3 O          26.9141   -5.8291   -0.7657 O.2       0 UNK        -0.5197 
      4 N          26.9632   -4.7203    1.2052 N.am      1 UNK        -0.4892 
      5 CA         27.4587   -3.4072    0.7630 C.3       1 UNK         0.0835 
      6 C6         28.8300   -3.4882    0.0380 C.3       12 UNK        -0.0855 
      7 S7         29.7498   -1.9116    0.0162 S.3       12 UNK        -0.2931 
      8 C8         29.2613   -1.1814   -1.5816 C.3       12 UNK         0.0378 
      9 C9         29.9356   -1.8496   -2.7728 C.ar      12 UNK        -0.0802 
     10 C10        31.1455   -1.3486   -3.2595 C.ar      12 UNK        -0.0944 
     11 C11        31.7685   -1.9405   -4.3617 C.ar      12 UNK        -0.0787 
     12 C12        31.1834   -3.0597   -4.9649 C.ar      12 UNK        -0.0862 
     13 C13        29.9686   -3.5672   -4.4930 C.ar      12 UNK        -0.0733 
     14 C14        29.3409   -2.9433   -3.4102 C.ar      12 UNK        -0.0832 
     15 C15        29.3603   -4.8170   -5.1196 C.3       12 UNK         0.0240 
     16 S16        28.5073   -4.4913   -6.6968 S.3       12 UNK        -0.2522 
     17 C17        27.0306   -3.5677   -6.1467 C.3       12 UNK        -0.0967 
     18 CA         26.7320   -2.3020   -6.9884 C.3       5 UNK         0.0660 
     19 N          25.4878   -1.6539   -6.5675 N.am      5 UNK        -0.4015 
     20 C          24.8442   -0.7074   -7.2678 C.2       4 UNK         0.4946 
     21 O          25.1937   -0.3181   -8.3811 O.2       4 UNK        -0.5353 
     22 CA         23.6310   -0.0469   -6.5919 C.3       4 UNK         0.0277 
     23 CB         22.3693   -0.9035   -6.7825 C.3       4 UNK        -0.1981 
     24 N          23.8492    0.2033   -5.1655 N.am      4 UNK        -0.4209 
     25 C          24.7789    1.0380   -4.6771 C.2       3 UNK         0.4942 
     26 O          25.4951    1.7477   -5.3819 O.2       3 UNK        -0.5208 
     27 CA         24.9749    1.0513   -3.1506 C.3       3 UNK         0.0250 
     28 CB         24.1177    2.1527   -2.5077 C.3       3 UNK        -0.1990 
     29 N          24.6854   -0.2356   -2.5064 N.am      3 UNK        -0.4232 
     30 C          25.3533   -1.3731   -2.7431 C.2       2 UNK         0.4993 
     31 O          26.2825   -1.4647   -3.5494 O.2       2 UNK        -0.5286 
     32 CA         24.8668   -2.6291   -2.0016 C.3       2 UNK         0.0209 
     33 CB         24.4091   -3.7039   -3.0019 C.3       2 UNK        -0.1931 
     34 N          25.8977   -3.1957   -1.1315 N.am      2 UNK        -0.4546 
     35 C          26.3954   -2.6155   -0.0319 C.2       1 UNK         0.5154 
     36 O          26.0215   -1.5177    0.3836 O.2       1 UNK        -0.5181 
     37 C          27.8923   -1.2887   -6.9916 C.2       5 UNK         0.5014 
     38 O          28.6095   -1.2069   -7.9890 O.2       5 UNK        -0.5248 
     39 N          28.0067   -0.4967   -5.9134 N.am      6 UNK        -0.4434 
     40 CA         28.9951    0.5771   -5.7639 C.3       6 UNK         0.0363 
     41 CB         28.8002    1.2687   -4.4054 C.3       6 UNK        -0.1936 
     42 C          28.9364    1.6141   -6.8991 C.2       6 UNK         0.5081 
     43 O          29.9834    2.0315   -7.3978 O.2       6 UNK        -0.5248 
     44 N          27.7133    1.9940   -7.2926 N.am      7 UNK        -0.4718 
     45 CA         27.4373    2.8745   -8.4244 C.3       7 UNK         0.0273 
     46 CB         25.9750    3.3452   -8.3674 C.3       7 UNK        -0.1935 
     47 C          27.7507    2.2103   -9.7741 C.2       7 UNK         0.5018 
     48 O          28.4647    2.8075  -10.5795 O.2       7 UNK        -0.5186 
     49 N          27.2272    0.9947   -9.9981 N.am      8 UNK        -0.4240 
     50 CA         27.3736    0.2423  -11.2499 C.3       8 UNK         0.0235 
     51 CB         26.4883   -1.0136  -11.2147 C.3       8 UNK        -0.2000 
     52 C          28.8255   -0.1356  -11.5810 C.2       8 UNK         0.4941 
     53 O          29.2336   -0.0021  -12.7355 O.2       8 UNK        -0.5273 
     54 N          29.5820   -0.5812  -10.5698 N.am      9 UNK        -0.4262 
     55 CA         31.0031   -0.9154  -10.6908 C.3       9 UNK         0.0264 
     56 CB         31.3617   -1.9656   -9.6275 C.3       9 UNK        -0.1955 
     57 C          31.9282    0.3146  -10.6029 C.2       9 UNK         0.5031 
     58 O          33.1243    0.1692  -10.8606 O.2       9 UNK        -0.5390 
     59 N          31.3715    1.4886  -10.2607 N.am      10 UNK        -0.4204 
     60 CA         32.0355    2.7887  -10.1048 C.3       10 UNK         0.0237 
     61 CB         32.5178    3.3225  -11.4705 C.3       10 UNK        -0.1985 
     62 C          33.1456    2.7548   -9.0373 C.2       10 UNK         0.4970 
     63 O          34.2814    3.1528   -9.3057 O.2       10 UNK        -0.4914 
     64 N          32.7859    2.2613   -7.8498 N.am      11 UNK        -0.4285 
     65 CA         33.6807    2.0452   -6.7033 C.3       11 UNK         0.1007 
     66 C          33.1030    2.5525   -5.3518 C.2       11 UNK         0.5703 
     67 N          31.8924    3.0965   -5.3049 N.am      11 UNK        -0.7361 
     68 O          33.7809    2.4834   -4.3294 O.2       11 UNK        -0.4986 
     69 C69        34.1838    0.5768   -6.6426 C.3       12 UNK        -0.0947 
     70 S70        32.8239   -0.6358   -6.5437 S.3       12 UNK        -0.2240 
     71 C71        33.0700   -1.3635   -4.8975 C.3       12 UNK         0.0194 
     72 H72        26.8976   -7.8795    1.0096 H         1 UNK         0.0906 
     73 H73        26.0953   -6.8908    2.2313 H         1 UNK         0.0906 
     74 H74        25.2397   -7.3305    0.7517 H         1 UNK         0.0906 
     75 H75        26.7591   -4.7742    2.1946 H         1 UNK         0.3140 
     76 H76        27.6190   -2.8487    1.6873 H         1 UNK         0.1085 
     77 H77        29.4672   -4.2001    0.5650 H         1 UNK         0.0836 
     78 H78        28.7293   -3.8956   -0.9647 H         1 UNK         0.0836 
     79 H79        28.1795   -1.2081   -1.6958 H         1 UNK         0.0731 
     80 H80        29.5276   -0.1239   -1.5572 H         1 UNK         0.0731 
     81 H81        31.5973   -0.4888   -2.7837 H         1 UNK         0.1312 
     82 H82        31.6689   -3.5282   -5.8102 H         1 UNK         0.1406 
     83 H83        28.3892   -3.3152   -3.0581 H         1 UNK         0.1631 
     84 H84        30.1520   -5.5457   -5.2995 H         1 UNK         0.0717 
     85 H85        28.6652   -5.2956   -4.4276 H         1 UNK         0.0717 
     86 H86        26.1811   -4.2503   -6.1984 H         1 UNK         0.0934 
     87 H87        27.1350   -3.3077   -5.0952 H         1 UNK         0.0934 
     88 H88        26.5890   -2.6256   -8.0218 H         1 UNK         0.0739 
     89 H89        25.1744   -1.8574   -5.6297 H         1 UNK         0.3093 
     90 H90        23.4671    0.9171   -7.0789 H         1 UNK         0.0818 
     91 H91        21.4868   -0.4044   -6.3817 H         1 UNK         0.0819 
     92 H92        22.1812   -1.0878   -7.8413 H         1 UNK         0.0819 
     93 H93        22.4577   -1.8746   -6.2937 H         1 UNK         0.0819 
     94 H94        23.2868   -0.3227   -4.5130 H         1 UNK         0.3041 
     95 H95        26.0249    1.2826   -2.9607 H         1 UNK         0.0784 
     96 H96        24.3336    3.1246   -2.9542 H         1 UNK         0.0793 
     97 H97        23.0512    1.9643   -2.6373 H         1 UNK         0.0793 
     98 H98        24.3175    2.2385   -1.4394 H         1 UNK         0.0793 
     99 H99        23.9439   -0.2381   -1.8203 H         1 UNK         0.3024 
    100 H100       24.0125   -2.3628   -1.3751 H         1 UNK         0.1171 
    101 H101       23.9829   -4.5656   -2.4875 H         1 UNK         0.0786 
    102 H102       23.6414   -3.3171   -3.6734 H         1 UNK         0.0786 
    103 H103       25.2350   -4.0613   -3.6178 H         1 UNK         0.0786 
    104 H104       26.2389   -4.1268   -1.3544 H         1 UNK         0.2977 
    105 H105       27.3859   -0.6619   -5.1279 H         1 UNK         0.3127 
    106 H106       29.9797    0.1069   -5.7792 H         1 UNK         0.0770 
    107 H107       27.9663    1.9705   -4.4177 H         1 UNK         0.0814 
    108 H108       29.6910    1.8296   -4.1249 H         1 UNK         0.0814 
    109 H109       28.6052    0.5488   -3.6151 H         1 UNK         0.0814 
    110 H110       26.9114    1.6561   -6.7677 H         1 UNK         0.2983 
    111 H111       28.0797    3.7530   -8.3306 H         1 UNK         0.0947 
    112 H112       25.7463    4.0138   -9.1984 H         1 UNK         0.0806 
    113 H113       25.7722    3.8910   -7.4457 H         1 UNK         0.0806 
    114 H114       25.2768    2.5088   -8.4172 H         1 UNK         0.0806 
    115 H115       26.6358    0.5726   -9.2854 H         1 UNK         0.3000 
    116 H116       27.0138    0.8843  -12.0567 H         1 UNK         0.0850 
    117 H117       26.5809   -1.5856  -12.1390 H         1 UNK         0.0810 
    118 H118       25.4361   -0.7531  -11.1000 H         1 UNK         0.0810 
    119 H119       26.7612   -1.6745  -10.3911 H         1 UNK         0.0810 
    120 H120       29.1640   -0.7003   -9.6457 H         1 UNK         0.3040 
    121 H121       31.1759   -1.3680  -11.6695 H         1 UNK         0.0766 
    122 H122       30.8021   -2.8886   -9.7790 H         1 UNK         0.0812 
    123 H123       31.1387   -1.6080   -8.6235 H         1 UNK         0.0812 
    124 H124       32.4224   -2.2179   -9.6583 H         1 UNK         0.0812 
    125 H125       30.3779    1.4922  -10.0691 H         1 UNK         0.3205 
    126 H126       31.2737    3.4762   -9.7335 H         1 UNK         0.0754 
    127 H127       32.9209    4.3314  -11.3748 H         1 UNK         0.0769 
    128 H128       31.6979    3.3680  -12.1875 H         1 UNK         0.0769 
    129 H129       33.3026    2.6973  -11.8974 H         1 UNK         0.0769 
    130 H130       31.8167    1.9836   -7.7103 H         1 UNK         0.2981 
    131 H131       34.5637    2.6703   -6.8458 H         1 UNK         0.0541 
    132 H132       31.3035    3.1199   -6.1256 H         1 UNK         0.3459 
    133 H133       31.5496    3.4472   -4.4256 H         1 UNK         0.3459 
    134 H134       34.8801    0.4352   -5.8145 H         1 UNK         0.0612 
    135 H135       34.7546    0.3540   -7.5452 H         1 UNK         0.0612 
    136 H136       33.4549   -0.6024   -4.2170 H         1 UNK         0.0624 
    137 H137       33.8280   -2.1455   -4.9562 H         1 UNK         0.0624 
@<TRIPOS>BOND
     1    1    2 1    
     2    1   72 1    
     3    1   73 1    
     4    1   74 1    
     5    2    3 2    
     6    2    4 am   BACKBONE|DICT|INTERRES
     7    4    5 1    
     8    4   75 1    
     9    5    6 1    
    10    5   35 1    
    11    5   76 1    
    12    6    7 1    
    13    6   77 1    
    14    6   78 1    
    15    7    8 1    
    16    8    9 1    
    17    8   79 1    
    18    8   80 1    
    19    9   10 ar   
    20    9   14 ar   
    21   10   11 ar   
    22   10   81 1    
    23   11   12 ar   
    24   11   71 1    
    25   12   13 ar   
    26   12   82 1    
    27   13   14 ar   
    28   13   15 1    
    29   14   83 1    
    30   15   16 1    
    31   15   84 1    
    32   15   85 1    
    33   16   17 1    
    34   17   18 1    
    35   17   86 1    
    36   17   87 1    
    37   18   19 1    
    38   18   37 1    
    39   18   88 1    
    40   19   20 am   BACKBONE|DICT|INTERRES
    41   19   89 1    
    42   20   21 2    
    43   20   22 1    
    44   22   23 1    
    45   22   24 1    
    46   22   90 1    
    47   23   91 1    
    48   23   92 1    
    49   23   93 1    
    50   24   25 am   BACKBONE|DICT|INTERRES
    51   24   94 1    
    52   25   26 2    
    53   25   27 1    
    54   27   28 1    
    55   27   29 1    
    56   27   95 1    
    57   28   96 1    
    58   28   97 1    
    59   28   98 1    
    60   29   30 am   BACKBONE|DICT|INTERRES
    61   29   99 1    
    62   30   31 2    
    63   30   32 1    
    64   32   33 1    
    65   32   34 1    
    66   32  100 1    
    67   33  101 1    
    68   33  102 1    
    69   33  103 1    
    70   34   35 am   BACKBONE|DICT|INTERRES
    71   34  104 1    
    72   35   36 2    
    73   37   38 2    
    74   37   39 am   BACKBONE|DICT|INTERRES
    75   39   40 1    
    76   39  105 1    
    77   40   41 1    
    78   40   42 1    
    79   40  106 1    
    80   41  107 1    
    81   41  108 1    
    82   41  109 1    
    83   42   43 2    
    84   42   44 am   BACKBONE|DICT|INTERRES
    85   44   45 1    
    86   44  110 1    
    87   45   46 1    
    88   45   47 1    
    89   45  111 1    
    90   46  112 1    
    91   46  113 1    
    92   46  114 1    
    93   47   48 2    
    94   47   49 am   BACKBONE|DICT|INTERRES
    95   49   50 1    
    96   49  115 1    
    97   50   51 1    
    98   50   52 1    
    99   50  116 1    
   100   51  117 1    
   101   51  118 1    
   102   51  119 1    
   103   52   53 2    
   104   52   54 am   BACKBONE|DICT|INTERRES
   105   54   55 1    
   106   54  120 1    
   107   55   56 1    
   108   55   57 1    
   109   55  121 1    
   110   56  122 1    
   111   56  123 1    
   112   56  124 1    
   113   57   58 2    
   114   57   59 am   BACKBONE|DICT|INTERRES
   115   59   60 1    
   116   59  125 1    
   117   60   61 1    
   118   60   62 1    
   119   60  126 1    
   120   61  127 1    
   121   61  128 1    
   122   61  129 1    
   123   62   63 2    
   124   62   64 am   BACKBONE|DICT|INTERRES
   125   64   65 1    
   126   64  130 1    
   127   65   66 1    
   128   65   69 1    
   129   65  131 1    
   130   66   67 am   BACKBONE|DICT|INTERRES
   131   66   68 2    
   132   67  132 1    
   133   67  133 1    
   134   69   70 1    
   135   69  134 1    
   136   69  135 1    
   137   70   71 1    
   138   71  136 1    
   139   71  137 1    
@<TRIPOS>SUBSTRUCTURE
     1 UNK         1 GROUP             0       ****    0 ROOT    
