@<TRIPOS>MOLECULE
3R137
137   139    1
SMALL
USER_CHARGES


@<TRIPOS>ATOM
      1 CA         24.6337   -4.5650   -1.0278 C.3       0 UNK        -0.2020 
      2 C          25.6939   -4.8867   -2.0792 C.2       0 UNK         0.4855 
      3 O          25.4891   -5.8038   -2.8711 O.2       0 UNK        -0.5197 
      4 N          26.8371   -4.1870   -2.1271 N.am      1 UNK        -0.4892 
      5 CA         27.2149   -3.0250   -1.3092 C.3       1 UNK         0.0835 
      6 C6         28.6947   -2.6369   -1.5301 C.3       12 UNK        -0.0855 
      7 S7         29.8514   -3.8917   -0.8892 S.3       12 UNK        -0.2931 
      8 C8         31.3833   -3.4676   -1.7973 C.3       12 UNK         0.0378 
      9 C9         31.2699   -3.5804   -3.3179 C.ar      12 UNK        -0.0802 
     10 C10        31.9858   -2.6984   -4.1350 C.ar      12 UNK        -0.0944 
     11 C11        31.8898   -2.7680   -5.5336 C.ar      12 UNK        -0.0787 
     12 C12        31.0495   -3.7318   -6.1034 C.ar      12 UNK        -0.0862 
     13 C13        30.3355   -4.6242   -5.2997 C.ar      12 UNK        -0.0733 
     14 C14        30.4667   -4.5566   -3.9133 C.ar      12 UNK        -0.0832 
     15 C15        29.4126   -5.6663   -5.9068 C.3       12 UNK         0.0240 
     16 S16        27.6800   -5.1071   -5.8644 S.3       12 UNK        -0.2522 
     17 C17        27.4954   -4.3268   -7.5035 C.3       12 UNK        -0.0967 
     18 CA         27.0487   -2.8466   -7.4732 C.3       5 UNK         0.0660 
     19 N          25.8326   -2.6168   -6.6863 N.am      5 UNK        -0.4015 
     20 C          25.1164   -1.4848   -6.7353 C.2       4 UNK         0.4946 
     21 O          25.4127   -0.5398   -7.4711 O.2       4 UNK        -0.5353 
     22 CA         23.9170   -1.3502   -5.7833 C.3       4 UNK         0.0277 
     23 CB         23.5381   -2.6549   -5.0504 C.3       4 UNK        -0.1981 
     24 N          24.2292   -0.3154   -4.7983 N.am      4 UNK        -0.4209 
     25 C          23.9462    0.9893   -4.9401 C.2       3 UNK         0.4942 
     26 O          23.2766    1.4462   -5.8676 O.2       3 UNK        -0.5208 
     27 CA         24.4829    1.9364   -3.8519 C.3       3 UNK         0.0250 
     28 CB         23.7255    3.2767   -3.7905 C.3       3 UNK        -0.1990 
     29 N          24.4111    1.2747   -2.5523 N.am      3 UNK        -0.4232 
     30 C          25.4225    1.1377   -1.6894 C.2       2 UNK         0.4993 
     31 O          26.5164    1.6909   -1.8101 O.2       2 UNK        -0.5286 
     32 CA         25.1945    0.1749   -0.5071 C.3       2 UNK         0.0209 
     33 CB         23.7336   -0.3135   -0.3592 C.3       2 UNK        -0.1931 
     34 N          26.0938   -0.9862   -0.5553 N.am      2 UNK        -0.4546 
     35 C          26.3030   -1.8132   -1.5924 C.2       1 UNK         0.5154 
     36 O          25.8183   -1.6589   -2.7186 O.2       1 UNK        -0.5181 
     37 C          28.1962   -1.8713   -7.1342 C.2       5 UNK         0.5014 
     38 O          29.0138   -1.5987   -8.0131 O.2       5 UNK        -0.5248 
     39 N          28.1971   -1.2951   -5.9204 N.am      6 UNK        -0.4434 
     40 CA         29.0849   -0.1930   -5.5391 C.3       6 UNK         0.0363 
     41 CB         28.9582    0.1221   -4.0413 C.3       6 UNK        -0.1936 
     42 C          28.8858    1.0843   -6.3689 C.2       6 UNK         0.5081 
     43 O          29.8625    1.7981   -6.5938 O.2       6 UNK        -0.5248 
     44 N          27.6545    1.3508   -6.8242 N.am      7 UNK        -0.4718 
     45 CA         27.3673    2.4581   -7.7351 C.3       7 UNK         0.0273 
     46 CB         25.9003    2.8933   -7.5967 C.3       7 UNK        -0.1935 
     47 C          27.6958    2.0735   -9.1838 C.2       7 UNK         0.5018 
     48 O          28.3066    2.8733   -9.8922 O.2       7 UNK        -0.5186 
     49 N          27.3092    0.8536   -9.5890 N.am      8 UNK        -0.4240 
     50 CA         27.4975    0.3323  -10.9474 C.3       8 UNK         0.0235 
     51 CB         26.7451   -0.9979  -11.1098 C.3       8 UNK        -0.2000 
     52 C          28.9743    0.1704  -11.3478 C.2       8 UNK         0.4941 
     53 O          29.3455    0.5795  -12.4484 O.2       8 UNK        -0.5273 
     54 N          29.7884   -0.4051  -10.4517 N.am      9 UNK        -0.4262 
     55 CA         31.2278   -0.6101  -10.6481 C.3       9 UNK         0.0264 
     56 CB         31.6283   -1.9720  -10.0562 C.3       9 UNK        -0.1955 
     57 C          32.0857    0.5405  -10.0841 C.2       9 UNK         0.5031 
     58 O          33.3120    0.4635  -10.1710 O.2       9 UNK        -0.5390 
     59 N          31.4390    1.5883   -9.5503 N.am      10 UNK        -0.4204 
     60 CA         32.0178    2.8479   -9.0682 C.3       10 UNK         0.0237 
     61 CB         32.5907    3.6648  -10.2467 C.3       10 UNK        -0.1985 
     62 C          33.0180    2.6822   -7.9056 C.2       10 UNK         0.4970 
     63 O          34.0759    3.3157   -7.9076 O.2       10 UNK        -0.4914 
     64 N          32.6432    1.8675   -6.9131 N.am      11 UNK        -0.4285 
     65 CA         33.2866    1.8391   -5.5898 C.3       11 UNK         0.1007 
     66 C          32.7701    2.9758   -4.6629 C.2       11 UNK         0.5703 
     67 N          31.5555    3.4804   -4.8537 N.am      11 UNK        -0.7361 
     68 O          33.4869    3.4103   -3.7647 O.2       11 UNK        -0.4986 
     69 C69        33.1359    0.4666   -4.8864 C.3       12 UNK        -0.0947 
     70 S70        34.0219   -0.8727   -5.7497 S.3       12 UNK        -0.2240 
     71 C71        32.6481   -1.8273   -6.4777 C.3       12 UNK         0.0194 
     72 H72        25.0720   -4.3733   -0.0496 H         1 UNK         0.0906 
     73 H73        24.0470   -3.6978   -1.3298 H         1 UNK         0.0906 
     74 H74        23.9480   -5.4046   -0.9151 H         1 UNK         0.0906 
     75 H75        27.5027   -4.4292   -2.8460 H         1 UNK         0.3140 
     76 H76        27.0936   -3.3002   -0.2599 H         1 UNK         0.1085 
     77 H77        28.9384   -1.6871   -1.0491 H         1 UNK         0.0836 
     78 H78        28.8719   -2.5045   -2.5966 H         1 UNK         0.0836 
     79 H79        32.1831   -4.1281   -1.4602 H         1 UNK         0.0731 
     80 H80        31.6779   -2.4554   -1.5156 H         1 UNK         0.0731 
     81 H81        32.6174   -1.9587   -3.6662 H         1 UNK         0.1312 
     82 H82        30.9465   -3.7843   -7.1788 H         1 UNK         0.1406 
     83 H83        29.9199   -5.2576   -3.2981 H         1 UNK         0.1631 
     84 H84        29.4902   -6.5936   -5.3371 H         1 UNK         0.0717 
     85 H85        29.7173   -5.9172   -6.9237 H         1 UNK         0.0717 
     86 H86        28.4145   -4.4307   -8.0834 H         1 UNK         0.0934 
     87 H87        26.7515   -4.9092   -8.0494 H         1 UNK         0.0934 
     88 H88        26.7726   -2.6055   -8.4999 H         1 UNK         0.0739 
     89 H89        25.5611   -3.3534   -6.0505 H         1 UNK         0.3093 
     90 H90        23.0600   -1.0458   -6.3878 H         1 UNK         0.0818 
     91 H91        22.6664   -2.5017   -4.4140 H         1 UNK         0.0819 
     92 H92        23.2781   -3.4436   -5.7578 H         1 UNK         0.0819 
     93 H93        24.3410   -3.0281   -4.4140 H         1 UNK         0.0819 
     94 H94        24.7953   -0.6158   -4.0077 H         1 UNK         0.3041 
     95 H95        25.5233    2.1416   -4.1139 H         1 UNK         0.0784 
     96 H96        23.8012    3.8148   -4.7363 H         1 UNK         0.0793 
     97 H97        22.6656    3.1306   -3.5794 H         1 UNK         0.0793 
     98 H98        24.1353    3.9263   -3.0169 H         1 UNK         0.0793 
     99 H99        23.5586    0.7638   -2.3677 H         1 UNK         0.3024 
    100 H100       25.4495    0.7396    0.3915 H         1 UNK         0.1171 
    101 H101       23.0406    0.5241   -0.2660 H         1 UNK         0.0786 
    102 H102       23.4133   -0.9261   -1.2033 H         1 UNK         0.0786 
    103 H103       23.6167   -0.9175    0.5408 H         1 UNK         0.0786 
    104 H104       26.5884   -1.1728    0.3064 H         1 UNK         0.2977 
    105 H105       27.5009   -1.5820   -5.2480 H         1 UNK         0.3127 
    106 H106       30.1053   -0.5236   -5.7235 H         1 UNK         0.0770 
    107 H107       27.9197    0.1438   -3.7100 H         1 UNK         0.0814 
    108 H108       29.3956    1.0923   -3.7988 H         1 UNK         0.0814 
    109 H109       29.5009   -0.6085   -3.4474 H         1 UNK         0.0814 
    110 H110       26.9062    0.6861   -6.6646 H         1 UNK         0.2983 
    111 H111       27.9917    3.3142   -7.4677 H         1 UNK         0.0947 
    112 H112       25.6803    3.7332   -8.2568 H         1 UNK         0.0806 
    113 H113       25.6777    3.2157   -6.5799 H         1 UNK         0.0806 
    114 H114       25.2081    2.0905   -7.8523 H         1 UNK         0.0806 
    115 H115       26.7927    0.2746   -8.9363 H         1 UNK         0.3000 
    116 H116       27.0485    1.0560  -11.6313 H         1 UNK         0.0850 
    117 H117       27.2208   -1.8019  -10.5500 H         1 UNK         0.0810 
    118 H118       26.7292   -1.3047  -12.1564 H         1 UNK         0.0810 
    119 H119       25.7091   -0.9184  -10.7794 H         1 UNK         0.0810 
    120 H120       29.4047   -0.7445   -9.5693 H         1 UNK         0.3040 
    121 H121       31.4445   -0.6510  -11.7176 H         1 UNK         0.0766 
    122 H122       31.1149   -2.7869  -10.5666 H         1 UNK         0.0812 
    123 H123       31.3809   -2.0398   -8.9999 H         1 UNK         0.0812 
    124 H124       32.6993   -2.1521  -10.1569 H         1 UNK         0.0812 
    125 H125       30.4293    1.5440   -9.5299 H         1 UNK         0.3205 
    126 H126       31.1823    3.4177   -8.6580 H         1 UNK         0.0754 
    127 H127       32.9061    4.6566   -9.9201 H         1 UNK         0.0769 
    128 H128       31.8450    3.8058  -11.0294 H         1 UNK         0.0769 
    129 H129       33.4582    3.1776  -10.6932 H         1 UNK         0.0769 
    130 H130       31.7049    1.4841   -6.9547 H         1 UNK         0.2981 
    131 H131       34.3558    2.0162   -5.7219 H         1 UNK         0.0541 
    132 H132       30.9411    3.0825   -5.5553 H         1 UNK         0.3459 
    133 H133       31.2284    4.2218   -4.2555 H         1 UNK         0.3459 
    134 H134       32.0833    0.2094   -4.7687 H         1 UNK         0.0612 
    135 H135       33.5480    0.5103   -3.8764 H         1 UNK         0.0612 
    136 H136       33.0732   -2.4221   -7.2873 H         1 UNK         0.0624 
    137 H137       31.9477   -1.1335   -6.9424 H         1 UNK         0.0624 
@<TRIPOS>BOND
     1    1    2 1    
     2    1   72 1    
     3    1   73 1    
     4    1   74 1    
     5    2    3 2    
     6    2    4 am   BACKBONE|DICT|INTERRES
     7    4    5 1    
     8    4   75 1    
     9    5    6 1    
    10    5   35 1    
    11    5   76 1    
    12    6    7 1    
    13    6   77 1    
    14    6   78 1    
    15    7    8 1    
    16    8    9 1    
    17    8   79 1    
    18    8   80 1    
    19    9   10 ar   
    20    9   14 ar   
    21   10   11 ar   
    22   10   81 1    
    23   11   12 ar   
    24   11   71 1    
    25   12   13 ar   
    26   12   82 1    
    27   13   14 ar   
    28   13   15 1    
    29   14   83 1    
    30   15   16 1    
    31   15   84 1    
    32   15   85 1    
    33   16   17 1    
    34   17   18 1    
    35   17   86 1    
    36   17   87 1    
    37   18   19 1    
    38   18   37 1    
    39   18   88 1    
    40   19   20 am   BACKBONE|DICT|INTERRES
    41   19   89 1    
    42   20   21 2    
    43   20   22 1    
    44   22   23 1    
    45   22   24 1    
    46   22   90 1    
    47   23   91 1    
    48   23   92 1    
    49   23   93 1    
    50   24   25 am   BACKBONE|DICT|INTERRES
    51   24   94 1    
    52   25   26 2    
    53   25   27 1    
    54   27   28 1    
    55   27   29 1    
    56   27   95 1    
    57   28   96 1    
    58   28   97 1    
    59   28   98 1    
    60   29   30 am   BACKBONE|DICT|INTERRES
    61   29   99 1    
    62   30   31 2    
    63   30   32 1    
    64   32   33 1    
    65   32   34 1    
    66   32  100 1    
    67   33  101 1    
    68   33  102 1    
    69   33  103 1    
    70   34   35 am   BACKBONE|DICT|INTERRES
    71   34  104 1    
    72   35   36 2    
    73   37   38 2    
    74   37   39 am   BACKBONE|DICT|INTERRES
    75   39   40 1    
    76   39  105 1    
    77   40   41 1    
    78   40   42 1    
    79   40  106 1    
    80   41  107 1    
    81   41  108 1    
    82   41  109 1    
    83   42   43 2    
    84   42   44 am   BACKBONE|DICT|INTERRES
    85   44   45 1    
    86   44  110 1    
    87   45   46 1    
    88   45   47 1    
    89   45  111 1    
    90   46  112 1    
    91   46  113 1    
    92   46  114 1    
    93   47   48 2    
    94   47   49 am   BACKBONE|DICT|INTERRES
    95   49   50 1    
    96   49  115 1    
    97   50   51 1    
    98   50   52 1    
    99   50  116 1    
   100   51  117 1    
   101   51  118 1    
   102   51  119 1    
   103   52   53 2    
   104   52   54 am   BACKBONE|DICT|INTERRES
   105   54   55 1    
   106   54  120 1    
   107   55   56 1    
   108   55   57 1    
   109   55  121 1    
   110   56  122 1    
   111   56  123 1    
   112   56  124 1    
   113   57   58 2    
   114   57   59 am   BACKBONE|DICT|INTERRES
   115   59   60 1    
   116   59  125 1    
   117   60   61 1    
   118   60   62 1    
   119   60  126 1    
   120   61  127 1    
   121   61  128 1    
   122   61  129 1    
   123   62   63 2    
   124   62   64 am   BACKBONE|DICT|INTERRES
   125   64   65 1    
   126   64  130 1    
   127   65   66 1    
   128   65   69 1    
   129   65  131 1    
   130   66   67 am   BACKBONE|DICT|INTERRES
   131   66   68 2    
   132   67  132 1    
   133   67  133 1    
   134   69   70 1    
   135   69  134 1    
   136   69  135 1    
   137   70   71 1    
   138   71  136 1    
   139   71  137 1    
@<TRIPOS>SUBSTRUCTURE
     1 UNK         1 GROUP             0       ****    0 ROOT    
