@<TRIPOS>MOLECULE
3R137
137   139    1
SMALL
USER_CHARGES


@<TRIPOS>ATOM
      1 CA         31.5254    0.0475   -0.4299 C.3       0 UNK        -0.2020 
      2 C          30.2135   -0.7041   -0.2614 C.2       0 UNK         0.4855 
      3 O          29.6441   -0.7006    0.8296 O.2       0 UNK        -0.5197 
      4 N          29.7323   -1.3370   -1.3413 N.am      1 UNK        -0.4892 
      5 CA         28.5190   -2.1719   -1.4119 C.3       1 UNK         0.0835 
      6 C6         28.5802   -3.4498   -0.5284 C.3       12 UNK        -0.0855 
      7 S7         30.0952   -4.4425   -0.7485 S.3       12 UNK        -0.2931 
      8 C8         29.6961   -5.4409   -2.2257 C.3       12 UNK         0.0378 
      9 C9         30.1232   -4.8144   -3.5546 C.ar      12 UNK        -0.0802 
     10 C10        31.2925   -4.0488   -3.6607 C.ar      12 UNK        -0.0944 
     11 C11        31.7326   -3.5795   -4.9010 C.ar      12 UNK        -0.0787 
     12 C12        30.9839   -3.8764   -6.0431 C.ar      12 UNK        -0.0862 
     13 C13        29.8100   -4.6317   -5.9649 C.ar      12 UNK        -0.0733 
     14 C14        29.3889   -5.0994   -4.7126 C.ar      12 UNK        -0.0832 
     15 C15        29.0958   -4.9846   -7.2727 C.3       12 UNK         0.0240 
     16 S16        27.3430   -5.4930   -7.1532 S.3       12 UNK        -0.2522 
     17 C17        26.5095   -4.0404   -6.4331 C.3       12 UNK        -0.0967 
     18 CA         26.2811   -2.8715   -7.4346 C.3       5 UNK         0.0660 
     19 N          24.9885   -2.2157   -7.2051 N.am      5 UNK        -0.4015 
     20 C          24.5173   -1.1394   -7.8532 C.2       4 UNK         0.4946 
     21 O          25.0598   -0.6361   -8.8368 O.2       4 UNK        -0.5353 
     22 CA         23.2598   -0.4644   -7.2687 C.3       4 UNK         0.0277 
     23 CB         22.0049   -0.9395   -8.0177 C.3       4 UNK        -0.1981 
     24 N          23.0613   -0.6433   -5.8214 N.am      4 UNK        -0.4209 
     25 C          23.9602   -0.3811   -4.8596 C.2       3 UNK         0.4942 
     26 O          25.1078    0.0066   -5.0918 O.2       3 UNK        -0.5208 
     27 CA         23.5109   -0.6644   -3.4131 C.3       3 UNK         0.0250 
     28 CB         23.1248   -2.1447   -3.2326 C.3       3 UNK        -0.1990 
     29 N          24.5549   -0.3497   -2.4376 N.am      3 UNK        -0.4232 
     30 C          24.9674    0.8687   -2.0746 C.2       2 UNK         0.4993 
     31 O          24.4335    1.9114   -2.4558 O.2       2 UNK        -0.5286 
     32 CA         26.1789    0.9519   -1.1232 C.3       2 UNK         0.0209 
     33 CB         25.7168    0.9621    0.3472 C.3       2 UNK        -0.1931 
     34 N          27.2418   -0.0505   -1.3343 N.am      2 UNK        -0.4546 
     35 C          27.2039   -1.3849   -1.1808 C.2       1 UNK         0.5154 
     36 O          26.1757   -2.0012   -0.8958 O.2       1 UNK        -0.5181 
     37 C          27.4472   -1.8644   -7.3607 C.2       5 UNK         0.5014 
     38 O          28.2432   -1.7725   -8.2953 O.2       5 UNK        -0.5248 
     39 N          27.4978   -1.1005   -6.2604 N.am      6 UNK        -0.4434 
     40 CA         28.5314   -0.1047   -5.9980 C.3       6 UNK         0.0363 
     41 CB         28.5051    0.2927   -4.5164 C.3       6 UNK        -0.1936 
     42 C          28.3970    1.1344   -6.8860 C.2       6 UNK         0.5081 
     43 O          29.4186    1.7292   -7.2214 O.2       6 UNK        -0.5248 
     44 N          27.1643    1.4896   -7.2719 N.am      7 UNK        -0.4718 
     45 CA         26.8923    2.5638   -8.2293 C.3       7 UNK         0.0273 
     46 CB         25.3904    2.8891   -8.2436 C.3       7 UNK        -0.1935 
     47 C          27.3965    2.2163   -9.6403 C.2       7 UNK         0.5018 
     48 O          28.0067    3.0667  -10.2885 O.2       7 UNK        -0.5186 
     49 N          27.1600    0.9696  -10.0739 N.am      8 UNK        -0.4240 
     50 CA         27.6300    0.4312  -11.3509 C.3       8 UNK         0.0235 
     51 CB         26.9023   -0.8896  -11.6512 C.3       8 UNK        -0.2000 
     52 C          29.1544    0.2347  -11.3884 C.2       8 UNK         0.4941 
     53 O          29.7904    0.6328  -12.3650 O.2       8 UNK        -0.5273 
     54 N          29.7126   -0.3752  -10.3336 N.am      9 UNK        -0.4262 
     55 CA         31.1397   -0.6937  -10.2230 C.3       9 UNK         0.0264 
     56 CB         31.3102   -1.8377   -9.2138 C.3       9 UNK        -0.1955 
     57 C          32.0301    0.5003   -9.8305 C.2       9 UNK         0.5031 
     58 O          33.2501    0.3921   -9.9631 O.2       9 UNK        -0.5390 
     59 N          31.4225    1.5931   -9.3450 N.am      10 UNK        -0.4204 
     60 CA         32.0549    2.7922   -8.7798 C.3       10 UNK         0.0237 
     61 CB         32.9081    3.5362   -9.8303 C.3       10 UNK        -0.1985 
     62 C          32.8117    2.4926   -7.4688 C.2       10 UNK         0.4970 
     63 O          33.9131    3.0045   -7.2585 O.2       10 UNK        -0.4914 
     64 N          32.1905    1.6763   -6.6081 N.am      11 UNK        -0.4285 
     65 CA         32.6742    1.3368   -5.2585 C.3       11 UNK         0.1007 
     66 C          32.1895    2.3320   -4.1656 C.2       11 UNK         0.5703 
     67 N          31.2748    3.2506   -4.4568 N.am      11 UNK        -0.7361 
     68 O          32.6577    2.2728   -3.0317 O.2       11 UNK        -0.4986 
     69 C69        32.3369   -0.1266   -4.8600 C.3       12 UNK        -0.0947 
     70 S70        33.0175   -1.3438   -6.0299 S.3       12 UNK        -0.2240 
     71 C71        33.0731   -2.8560   -5.0127 C.3       12 UNK         0.0194 
     72 H72        32.2571   -0.3083    0.2949 H         1 UNK         0.0906 
     73 H73        31.9477   -0.0820   -1.4260 H         1 UNK         0.0906 
     74 H74        31.3726    1.1137   -0.2648 H         1 UNK         0.0906 
     75 H75        30.2745   -1.3122   -2.1929 H         1 UNK         0.3140 
     76 H76        28.4603   -2.5135   -2.4464 H         1 UNK         0.1085 
     77 H77        28.5181   -3.1774    0.5267 H         1 UNK         0.0836 
     78 H78        27.7185   -4.0931   -0.7162 H         1 UNK         0.0836 
     79 H79        28.6293   -5.6693   -2.2326 H         1 UNK         0.0731 
     80 H80        30.2092   -6.3988   -2.1320 H         1 UNK         0.0731 
     81 H81        31.8928   -3.8583   -2.7821 H         1 UNK         0.1312 
     82 H82        31.3432   -3.5507   -7.0082 H         1 UNK         0.1406 
     83 H83        28.5093   -5.7238   -4.6395 H         1 UNK         0.1631 
     84 H84        29.6432   -5.8077   -7.7334 H         1 UNK         0.0717 
     85 H85        29.1710   -4.1555   -7.9751 H         1 UNK         0.0717 
     86 H86        25.5484   -4.4174   -6.0795 H         1 UNK         0.0934 
     87 H87        27.0298   -3.7246   -5.5267 H         1 UNK         0.0934 
     88 H88        26.2473   -3.2666   -8.4521 H         1 UNK         0.0739 
     89 H89        24.4510   -2.5516   -6.4208 H         1 UNK         0.3093 
     90 H90        23.3680    0.6079   -7.4379 H         1 UNK         0.0818 
     91 H91        21.1209   -0.3816   -7.7082 H         1 UNK         0.0819 
     92 H92        22.1141   -0.7946   -9.0938 H         1 UNK         0.0819 
     93 H93        21.8106   -1.9996   -7.8501 H         1 UNK         0.0819 
     94 H94        22.1459   -0.9644   -5.5394 H         1 UNK         0.3041 
     95 H95        22.6414   -0.0389   -3.2012 H         1 UNK         0.0784 
     96 H96        22.2830   -2.4249   -3.8664 H         1 UNK         0.0793 
     97 H97        23.9549   -2.8101   -3.4743 H         1 UNK         0.0793 
     98 H98        22.8260   -2.3504   -2.2042 H         1 UNK         0.0793 
     99 H99        25.0505   -1.1351   -2.0227 H         1 UNK         0.3024 
    100 H100       26.6473    1.9176   -1.3220 H         1 UNK         0.1171 
    101 H101       25.0080    1.7716    0.5274 H         1 UNK         0.0786 
    102 H102       25.2221    0.0312    0.6258 H         1 UNK         0.0786 
    103 H103       26.5576    1.1103    1.0251 H         1 UNK         0.0786 
    104 H104       28.1411    0.3370   -1.5823 H         1 UNK         0.2977 
    105 H105       26.7146   -1.1120   -5.6157 H         1 UNK         0.3127 
    106 H106       29.4970   -0.5629   -6.2205 H         1 UNK         0.0770 
    107 H107       27.5387    0.7052   -4.2247 H         1 UNK         0.0814 
    108 H108       29.2583    1.0498   -4.2960 H         1 UNK         0.0814 
    109 H109       28.7126   -0.5685   -3.8864 H         1 UNK         0.0814 
    110 H110       26.3777    0.9559   -6.9259 H         1 UNK         0.2983 
    111 H111       27.4293    3.4539   -7.8933 H         1 UNK         0.0947 
    112 H112       25.1915    3.7625   -8.8661 H         1 UNK         0.0806 
    113 H113       25.0201    3.1125   -7.2429 H         1 UNK         0.0806 
    114 H114       24.8007    2.0666   -8.6471 H         1 UNK         0.0806 
    115 H115       26.5995    0.3486   -9.4950 H         1 UNK         0.3000 
    116 H116       27.3685    1.1468  -12.1336 H         1 UNK         0.0850 
    117 H117       27.2283   -1.3091  -12.6039 H         1 UNK         0.0810 
    118 H118       25.8241   -0.7408  -11.7132 H         1 UNK         0.0810 
    119 H119       27.0892   -1.6391  -10.8809 H         1 UNK         0.0810 
    120 H120       29.1106   -0.7273   -9.5903 H         1 UNK         0.3040 
    121 H121       31.4898   -1.0490  -11.1945 H         1 UNK         0.0766 
    122 H122       30.9574   -1.5443   -8.2248 H         1 UNK         0.0812 
    123 H123       32.3574   -2.1272   -9.1165 H         1 UNK         0.0812 
    124 H124       30.7540   -2.7239   -9.5195 H         1 UNK         0.0812 
    125 H125       30.4176    1.5502   -9.2274 H         1 UNK         0.3205 
    126 H126       31.2345    3.4567   -8.5044 H         1 UNK         0.0754 
    127 H127       33.2454    4.4993   -9.4455 H         1 UNK         0.0769 
    128 H128       32.3364    3.7324  -10.7374 H         1 UNK         0.0769 
    129 H129       33.7977    2.9710  -10.1092 H         1 UNK         0.0769 
    130 H130       31.2467    1.3822   -6.8385 H         1 UNK         0.2981 
    131 H131       33.7627    1.4179   -5.2596 H         1 UNK         0.0541 
    132 H132       30.8773    3.3041   -5.3811 H         1 UNK         0.3459 
    133 H133       30.9784    3.8937   -3.7403 H         1 UNK         0.3459 
    134 H134       32.7430   -0.3469   -3.8713 H         1 UNK         0.0612 
    135 H135       31.2621   -0.2794   -4.7879 H         1 UNK         0.0612 
    136 H136       33.4724   -2.6123   -4.0271 H         1 UNK         0.0624 
    137 H137       33.7884   -3.5424   -5.4672 H         1 UNK         0.0624 
@<TRIPOS>BOND
     1    1    2 1    
     2    1   72 1    
     3    1   73 1    
     4    1   74 1    
     5    2    3 2    
     6    2    4 am   BACKBONE|DICT|INTERRES
     7    4    5 1    
     8    4   75 1    
     9    5    6 1    
    10    5   35 1    
    11    5   76 1    
    12    6    7 1    
    13    6   77 1    
    14    6   78 1    
    15    7    8 1    
    16    8    9 1    
    17    8   79 1    
    18    8   80 1    
    19    9   10 ar   
    20    9   14 ar   
    21   10   11 ar   
    22   10   81 1    
    23   11   12 ar   
    24   11   71 1    
    25   12   13 ar   
    26   12   82 1    
    27   13   14 ar   
    28   13   15 1    
    29   14   83 1    
    30   15   16 1    
    31   15   84 1    
    32   15   85 1    
    33   16   17 1    
    34   17   18 1    
    35   17   86 1    
    36   17   87 1    
    37   18   19 1    
    38   18   37 1    
    39   18   88 1    
    40   19   20 am   BACKBONE|DICT|INTERRES
    41   19   89 1    
    42   20   21 2    
    43   20   22 1    
    44   22   23 1    
    45   22   24 1    
    46   22   90 1    
    47   23   91 1    
    48   23   92 1    
    49   23   93 1    
    50   24   25 am   BACKBONE|DICT|INTERRES
    51   24   94 1    
    52   25   26 2    
    53   25   27 1    
    54   27   28 1    
    55   27   29 1    
    56   27   95 1    
    57   28   96 1    
    58   28   97 1    
    59   28   98 1    
    60   29   30 am   BACKBONE|DICT|INTERRES
    61   29   99 1    
    62   30   31 2    
    63   30   32 1    
    64   32   33 1    
    65   32   34 1    
    66   32  100 1    
    67   33  101 1    
    68   33  102 1    
    69   33  103 1    
    70   34   35 am   BACKBONE|DICT|INTERRES
    71   34  104 1    
    72   35   36 2    
    73   37   38 2    
    74   37   39 am   BACKBONE|DICT|INTERRES
    75   39   40 1    
    76   39  105 1    
    77   40   41 1    
    78   40   42 1    
    79   40  106 1    
    80   41  107 1    
    81   41  108 1    
    82   41  109 1    
    83   42   43 2    
    84   42   44 am   BACKBONE|DICT|INTERRES
    85   44   45 1    
    86   44  110 1    
    87   45   46 1    
    88   45   47 1    
    89   45  111 1    
    90   46  112 1    
    91   46  113 1    
    92   46  114 1    
    93   47   48 2    
    94   47   49 am   BACKBONE|DICT|INTERRES
    95   49   50 1    
    96   49  115 1    
    97   50   51 1    
    98   50   52 1    
    99   50  116 1    
   100   51  117 1    
   101   51  118 1    
   102   51  119 1    
   103   52   53 2    
   104   52   54 am   BACKBONE|DICT|INTERRES
   105   54   55 1    
   106   54  120 1    
   107   55   56 1    
   108   55   57 1    
   109   55  121 1    
   110   56  122 1    
   111   56  123 1    
   112   56  124 1    
   113   57   58 2    
   114   57   59 am   BACKBONE|DICT|INTERRES
   115   59   60 1    
   116   59  125 1    
   117   60   61 1    
   118   60   62 1    
   119   60  126 1    
   120   61  127 1    
   121   61  128 1    
   122   61  129 1    
   123   62   63 2    
   124   62   64 am   BACKBONE|DICT|INTERRES
   125   64   65 1    
   126   64  130 1    
   127   65   66 1    
   128   65   69 1    
   129   65  131 1    
   130   66   67 am   BACKBONE|DICT|INTERRES
   131   66   68 2    
   132   67  132 1    
   133   67  133 1    
   134   69   70 1    
   135   69  134 1    
   136   69  135 1    
   137   70   71 1    
   138   71  136 1    
   139   71  137 1    
@<TRIPOS>SUBSTRUCTURE
     1 UNK         1 GROUP             0       ****    0 ROOT    
