@<TRIPOS>MOLECULE
3R137
137   139    1
SMALL
USER_CHARGES


@<TRIPOS>ATOM
      1 CA         26.5729   -5.8111   -6.9469 C.3       0 UNK        -0.2020 
      2 C          26.1742   -5.2852   -5.5765 C.2       0 UNK         0.4855 
      3 O          25.0477   -4.8171   -5.4071 O.2       0 UNK        -0.5197 
      4 N          27.0976   -5.3490   -4.6062 N.am      1 UNK        -0.4892 
      5 CA         26.9659   -4.8579   -3.2271 C.3       1 UNK         0.0835 
      6 C6         28.2841   -5.1078   -2.4503 C.3       12 UNK        -0.0855 
      7 S7         28.2294   -4.6185   -0.6900 S.3       12 UNK        -0.2931 
      8 C8         30.0034   -4.4607   -0.2928 C.3       12 UNK         0.0378 
      9 C9         30.6680   -3.3035   -1.0293 C.ar      12 UNK        -0.0802 
     10 C10        31.4882   -3.5490   -2.1349 C.ar      12 UNK        -0.0944 
     11 C11        32.1050   -2.4995   -2.8234 C.ar      12 UNK        -0.0787 
     12 C12        31.8703   -1.1844   -2.3987 C.ar      12 UNK        -0.0862 
     13 C13        31.0694   -0.9221   -1.2813 C.ar      12 UNK        -0.0733 
     14 C14        30.4802   -1.9889   -0.5942 C.ar      12 UNK        -0.0832 
     15 C15        30.8761    0.5177   -0.8105 C.3       12 UNK         0.0240 
     16 S16        29.1342    1.0053   -0.5402 S.3       12 UNK        -0.2522 
     17 C17        28.2585    0.3140   -1.9828 C.3       12 UNK        -0.0967 
     18 CA         28.7351    0.8606   -3.3537 C.3       5 UNK         0.0660 
     19 N          28.5025   -0.1229   -4.4057 N.am      5 UNK        -0.4015 
     20 C          29.0436   -0.1124   -5.6285 C.2       4 UNK         0.4946 
     21 O          29.7603    0.7875   -6.0603 O.2       4 UNK        -0.5353 
     22 CA         28.7049   -1.3169   -6.5226 C.3       4 UNK         0.0277 
     23 CB         29.5322   -2.5564   -6.1375 C.3       4 UNK        -0.1981 
     24 N          27.2821   -1.6402   -6.4363 N.am      4 UNK        -0.4209 
     25 C          26.3225   -0.9381   -7.0504 C.2       3 UNK         0.4942 
     26 O          26.5565   -0.0147   -7.8278 O.2       3 UNK        -0.5208 
     27 CA         24.8634   -1.3039   -6.7300 C.3       3 UNK         0.0250 
     28 CB         24.3271   -2.3279   -7.7413 C.3       3 UNK        -0.1990 
     29 N          24.6910   -1.8064   -5.3638 N.am      3 UNK        -0.4232 
     30 C          24.8086   -1.0334   -4.2730 C.2       2 UNK         0.4993 
     31 O          25.0339    0.1760   -4.3196 O.2       2 UNK        -0.5286 
     32 CA         24.7282   -1.7223   -2.8986 C.3       2 UNK         0.0209 
     33 CB         23.2730   -1.7734   -2.4086 C.3       2 UNK        -0.1931 
     34 N          25.3047   -3.0712   -2.8718 N.am      2 UNK        -0.4546 
     35 C          26.5644   -3.3688   -3.2204 C.2       1 UNK         0.5154 
     36 O          27.3790   -2.5266   -3.5976 O.2       1 UNK        -0.5181 
     37 C          28.1311    2.2434   -3.6677 C.2       5 UNK         0.5014 
     38 O          28.8578    3.2382   -3.6313 O.2       5 UNK        -0.5248 
     39 N          26.8175    2.2933   -3.9329 N.am      6 UNK        -0.4434 
     40 CA         26.0595    3.5399   -4.0544 C.3       6 UNK         0.0363 
     41 CB         24.6979    3.3871   -3.3548 C.3       6 UNK        -0.1936 
     42 C          25.8702    3.9651   -5.5143 C.2       6 UNK         0.5081 
     43 O          26.1100    5.1297   -5.8341 O.2       6 UNK        -0.5248 
     44 N          25.4305    3.0344   -6.3743 N.am      7 UNK        -0.4718 
     45 CA         25.1169    3.3242   -7.7814 C.3       7 UNK         0.0273 
     46 CB         24.0739    2.3217   -8.3039 C.3       7 UNK        -0.1935 
     47 C          26.3552    3.3677   -8.6965 C.2       7 UNK         0.5018 
     48 O          26.2389    3.8412   -9.8276 O.2       7 UNK        -0.5186 
     49 N          27.5037    2.8857   -8.1971 N.am      8 UNK        -0.4240 
     50 CA         28.8101    2.8193   -8.8624 C.3       8 UNK         0.0235 
     51 CB         29.3676    4.2352   -9.1239 C.3       8 UNK        -0.2000 
     52 C          28.8134    1.9271  -10.1199 C.2       8 UNK         0.4941 
     53 O          29.5108    2.2330  -11.0889 O.2       8 UNK        -0.5273 
     54 N          28.0548    0.8214  -10.0805 N.am      9 UNK        -0.4262 
     55 CA         27.9960   -0.1881  -11.1449 C.3       9 UNK         0.0264 
     56 CB         26.7253   -1.0352  -10.9622 C.3       9 UNK        -0.1955 
     57 C          29.2415   -1.0958  -11.1957 C.2       9 UNK         0.5031 
     58 O          29.4253   -1.8129  -12.1804 O.2       9 UNK        -0.5390 
     59 N          30.0618   -1.0569  -10.1413 N.am      10 UNK        -0.4204 
     60 CA         31.3100   -1.7867   -9.9559 C.3       10 UNK         0.0237 
     61 CB         31.0249   -3.2686   -9.6277 C.3       10 UNK        -0.1985 
     62 C          32.1161   -1.0594   -8.8654 C.2       10 UNK         0.4970 
     63 O          31.7981    0.0877   -8.5440 O.2       10 UNK        -0.4914 
     64 N          33.1392   -1.7298   -8.3218 N.am      11 UNK        -0.4285 
     65 CA         34.0690   -1.2188   -7.2970 C.3       11 UNK         0.1007 
     66 C          35.0830   -0.1460   -7.8040 C.2       11 UNK         0.5703 
     67 N          35.2342    0.0574   -9.1078 N.am      11 UNK        -0.7361 
     68 O          35.7719    0.4904   -7.0101 O.2       11 UNK        -0.4986 
     69 C69        33.3615   -0.8180   -5.9609 C.3       12 UNK        -0.0947 
     70 S70        34.1947   -1.5392   -4.5061 S.3       12 UNK        -0.2240 
     71 C71        33.0188   -2.8467   -4.0029 C.3       12 UNK         0.0194 
     72 H72        25.8009   -6.4763   -7.3328 H         1 UNK         0.0906 
     73 H73        26.6926   -4.9848   -7.6469 H         1 UNK         0.0906 
     74 H74        27.5099   -6.3666   -6.9136 H         1 UNK         0.0906 
     75 H75        28.0011   -5.7402   -4.8314 H         1 UNK         0.3140 
     76 H76        26.1727   -5.4349   -2.7475 H         1 UNK         0.1085 
     77 H77        29.1006   -4.5819   -2.9460 H         1 UNK         0.0836 
     78 H78        28.5421   -6.1673   -2.4886 H         1 UNK         0.0836 
     79 H79        30.5067   -5.4023   -0.5182 H         1 UNK         0.0731 
     80 H80        30.1102   -4.3112    0.7826 H         1 UNK         0.0731 
     81 H81        31.6513   -4.5675   -2.4606 H         1 UNK         0.1312 
     82 H82        32.3241   -0.3562   -2.9237 H         1 UNK         0.1406 
     83 H83        29.8588   -1.7940    0.2696 H         1 UNK         0.1631 
     84 H84        31.3219    1.2180   -1.5183 H         1 UNK         0.0717 
     85 H85        31.4205    0.6527    0.1248 H         1 UNK         0.0717 
     86 H86        28.3888   -0.7676   -1.9398 H         1 UNK         0.0934 
     87 H87        27.1872    0.4690   -1.8440 H         1 UNK         0.0934 
     88 H88        29.8173    0.9917   -3.3174 H         1 UNK         0.0739 
     89 H89        27.9744   -0.9505   -4.1319 H         1 UNK         0.3093 
     90 H90        28.9406   -1.0566   -7.5554 H         1 UNK         0.0818 
     91 H91        30.5744   -2.4276   -6.4212 H         1 UNK         0.0819 
     92 H92        29.5134   -2.7539   -5.0652 H         1 UNK         0.0819 
     93 H93        29.1713   -3.4509   -6.6448 H         1 UNK         0.0819 
     94 H94        27.0153   -2.3314   -5.7479 H         1 UNK         0.3041 
     95 H95        24.2671   -0.3949   -6.8256 H         1 UNK         0.0784 
     96 H96        24.3980   -1.9423   -8.7593 H         1 UNK         0.0793 
     97 H97        24.8850   -3.2634   -7.7081 H         1 UNK         0.0793 
     98 H98        23.2779   -2.5571   -7.5547 H         1 UNK         0.0793 
     99 H99        24.5574   -2.8070   -5.2503 H         1 UNK         0.3024 
    100 H100       25.3018   -1.1106   -2.1995 H         1 UNK         0.1171 
    101 H101       23.2094   -2.1613   -1.3918 H         1 UNK         0.0786 
    102 H102       22.8289   -0.7767   -2.4010 H         1 UNK         0.0786 
    103 H103       22.6526   -2.4021   -3.0487 H         1 UNK         0.0786 
    104 H104       24.6806   -3.8243   -2.6195 H         1 UNK         0.2977 
    105 H105       26.2770    1.4309   -3.9994 H         1 UNK         0.3127 
    106 H106       26.5924    4.3455   -3.5441 H         1 UNK         0.0770 
    107 H107       24.0815    2.6163   -3.8184 H         1 UNK         0.0814 
    108 H108       24.1340    4.3200   -3.3946 H         1 UNK         0.0814 
    109 H109       24.8208    3.1280   -2.3032 H         1 UNK         0.0814 
    110 H110       25.2590    2.0953   -6.0404 H         1 UNK         0.2983 
    111 H111       24.6601    4.3156   -7.8300 H         1 UNK         0.0947 
    112 H112       23.7095    2.6252   -9.2862 H         1 UNK         0.0806 
    113 H113       23.2085    2.2616   -7.6439 H         1 UNK         0.0806 
    114 H114       24.4853    1.3212   -8.4173 H         1 UNK         0.0806 
    115 H115       27.4625    2.4793   -7.2729 H         1 UNK         0.3000 
    116 H116       29.4853    2.3341   -8.1570 H         1 UNK         0.0850 
    117 H117       30.3970    4.1895   -9.4813 H         1 UNK         0.0810 
    118 H118       29.3688    4.8347   -8.2135 H         1 UNK         0.0810 
    119 H119       28.7859    4.7678   -9.8768 H         1 UNK         0.0810 
    120 H120       27.4961    0.6350   -9.2473 H         1 UNK         0.3040 
    121 H121       27.9266    0.3291  -12.1042 H         1 UNK         0.0766 
    122 H122       25.8329   -0.4109  -10.9121 H         1 UNK         0.0812 
    123 H123       26.7682   -1.6340  -10.0519 H         1 UNK         0.0812 
    124 H124       26.5934   -1.7245  -11.7972 H         1 UNK         0.0812 
    125 H125       29.8922   -0.3599   -9.4269 H         1 UNK         0.3205 
    126 H126       31.8867   -1.7275  -10.8810 H         1 UNK         0.0754 
    127 H127       31.9440   -3.8493   -9.5474 H         1 UNK         0.0769 
    128 H128       30.4284   -3.7394  -10.4093 H         1 UNK         0.0769 
    129 H129       30.4805   -3.3783   -8.6914 H         1 UNK         0.0769 
    130 H130       33.3395   -2.6606   -8.6579 H         1 UNK         0.2981 
    131 H131       34.7001   -2.0847   -7.0942 H         1 UNK         0.0541 
    132 H132       35.9005    0.7442   -9.4240 H         1 UNK         0.3459 
    133 H133       34.6911   -0.4639   -9.7762 H         1 UNK         0.3459 
    134 H134       32.3192   -1.1298   -5.9519 H         1 UNK         0.0612 
    135 H135       33.3199    0.2659   -5.8384 H         1 UNK         0.0612 
    136 H136       32.4104   -3.1553   -4.8534 H         1 UNK         0.0624 
    137 H137       33.6160   -3.7186   -3.7317 H         1 UNK         0.0624 
@<TRIPOS>BOND
     1    1    2 1    
     2    1   72 1    
     3    1   73 1    
     4    1   74 1    
     5    2    3 2    
     6    2    4 am   BACKBONE|DICT|INTERRES
     7    4    5 1    
     8    4   75 1    
     9    5    6 1    
    10    5   35 1    
    11    5   76 1    
    12    6    7 1    
    13    6   77 1    
    14    6   78 1    
    15    7    8 1    
    16    8    9 1    
    17    8   79 1    
    18    8   80 1    
    19    9   10 ar   
    20    9   14 ar   
    21   10   11 ar   
    22   10   81 1    
    23   11   12 ar   
    24   11   71 1    
    25   12   13 ar   
    26   12   82 1    
    27   13   14 ar   
    28   13   15 1    
    29   14   83 1    
    30   15   16 1    
    31   15   84 1    
    32   15   85 1    
    33   16   17 1    
    34   17   18 1    
    35   17   86 1    
    36   17   87 1    
    37   18   19 1    
    38   18   37 1    
    39   18   88 1    
    40   19   20 am   BACKBONE|DICT|INTERRES
    41   19   89 1    
    42   20   21 2    
    43   20   22 1    
    44   22   23 1    
    45   22   24 1    
    46   22   90 1    
    47   23   91 1    
    48   23   92 1    
    49   23   93 1    
    50   24   25 am   BACKBONE|DICT|INTERRES
    51   24   94 1    
    52   25   26 2    
    53   25   27 1    
    54   27   28 1    
    55   27   29 1    
    56   27   95 1    
    57   28   96 1    
    58   28   97 1    
    59   28   98 1    
    60   29   30 am   BACKBONE|DICT|INTERRES
    61   29   99 1    
    62   30   31 2    
    63   30   32 1    
    64   32   33 1    
    65   32   34 1    
    66   32  100 1    
    67   33  101 1    
    68   33  102 1    
    69   33  103 1    
    70   34   35 am   BACKBONE|DICT|INTERRES
    71   34  104 1    
    72   35   36 2    
    73   37   38 2    
    74   37   39 am   BACKBONE|DICT|INTERRES
    75   39   40 1    
    76   39  105 1    
    77   40   41 1    
    78   40   42 1    
    79   40  106 1    
    80   41  107 1    
    81   41  108 1    
    82   41  109 1    
    83   42   43 2    
    84   42   44 am   BACKBONE|DICT|INTERRES
    85   44   45 1    
    86   44  110 1    
    87   45   46 1    
    88   45   47 1    
    89   45  111 1    
    90   46  112 1    
    91   46  113 1    
    92   46  114 1    
    93   47   48 2    
    94   47   49 am   BACKBONE|DICT|INTERRES
    95   49   50 1    
    96   49  115 1    
    97   50   51 1    
    98   50   52 1    
    99   50  116 1    
   100   51  117 1    
   101   51  118 1    
   102   51  119 1    
   103   52   53 2    
   104   52   54 am   BACKBONE|DICT|INTERRES
   105   54   55 1    
   106   54  120 1    
   107   55   56 1    
   108   55   57 1    
   109   55  121 1    
   110   56  122 1    
   111   56  123 1    
   112   56  124 1    
   113   57   58 2    
   114   57   59 am   BACKBONE|DICT|INTERRES
   115   59   60 1    
   116   59  125 1    
   117   60   61 1    
   118   60   62 1    
   119   60  126 1    
   120   61  127 1    
   121   61  128 1    
   122   61  129 1    
   123   62   63 2    
   124   62   64 am   BACKBONE|DICT|INTERRES
   125   64   65 1    
   126   64  130 1    
   127   65   66 1    
   128   65   69 1    
   129   65  131 1    
   130   66   67 am   BACKBONE|DICT|INTERRES
   131   66   68 2    
   132   67  132 1    
   133   67  133 1    
   134   69   70 1    
   135   69  134 1    
   136   69  135 1    
   137   70   71 1    
   138   71  136 1    
   139   71  137 1    
@<TRIPOS>SUBSTRUCTURE
     1 UNK         1 GROUP             0       ****    0 ROOT    
