@<TRIPOS>MOLECULE
3R137
137   139    1
SMALL
USER_CHARGES


@<TRIPOS>ATOM
      1 CA         24.8448   -6.1421   -4.7043 C.3       0 UNK        -0.2020 
      2 C          25.2179   -5.2353   -3.5421 C.2       0 UNK         0.4855 
      3 O          24.3345   -4.6446   -2.9199 O.2       0 UNK        -0.5197 
      4 N          26.5192   -5.1161   -3.2438 N.am      1 UNK        -0.4892 
      5 CA         27.0540   -4.2651   -2.1754 C.3       1 UNK         0.0835 
      6 C6         28.5652   -4.5127   -1.9517 C.3       12 UNK        -0.0855 
      7 S7         29.1277   -3.8532   -0.3461 S.3       12 UNK        -0.2931 
      8 C8         30.9379   -3.8713   -0.5537 C.3       12 UNK         0.0378 
      9 C9         31.4587   -2.9120   -1.6224 C.ar      12 UNK        -0.0802 
     10 C10        32.4636   -3.3421   -2.4948 C.ar      12 UNK        -0.0944 
     11 C11        33.0138   -2.4675   -3.4349 C.ar      12 UNK        -0.0787 
     12 C12        32.5428   -1.1538   -3.5118 C.ar      12 UNK        -0.0862 
     13 C13        31.5343   -0.7073   -2.6513 C.ar      12 UNK        -0.0733 
     14 C14        30.9978   -1.5911   -1.7071 C.ar      12 UNK        -0.0832 
     15 C15        31.0776    0.7473   -2.6981 C.3       12 UNK         0.0240 
     16 S16        30.4004    1.2345   -4.3187 S.3       12 UNK        -0.2522 
     17 C17        28.7459    0.4775   -4.2563 C.3       12 UNK        -0.0967 
     18 CA         27.9931    0.5652   -5.6088 C.3       5 UNK         0.0660 
     19 N          26.9906   -0.5010   -5.7270 N.am      5 UNK        -0.4015 
     20 C          26.2074   -0.7381   -6.7903 C.2       4 UNK         0.4946 
     21 O          26.1878   -0.0455   -7.8058 O.2       4 UNK        -0.5353 
     22 CA         25.2378   -1.9221   -6.6816 C.3       4 UNK         0.0277 
     23 CB         25.9767   -3.2633   -6.8182 C.3       4 UNK        -0.1981 
     24 N          24.4955   -1.8724   -5.4225 N.am      4 UNK        -0.4209 
     25 C          23.4555   -1.0550   -5.2020 C.2       3 UNK         0.4942 
     26 O          22.9418   -0.3479   -6.0691 O.2       3 UNK        -0.5208 
     27 CA         22.9100   -0.9909   -3.7649 C.3       3 UNK         0.0250 
     28 CB         21.8225   -2.0553   -3.5495 C.3       3 UNK        -0.1990 
     29 N          23.9530   -1.1381   -2.7459 N.am      3 UNK        -0.4232 
     30 C          24.9428   -0.2555   -2.5438 C.2       2 UNK         0.4993 
     31 O          25.0744    0.7852   -3.1856 O.2       2 UNK        -0.5286 
     32 CA         25.9987   -0.6157   -1.4859 C.3       2 UNK         0.0209 
     33 CB         25.5579   -0.1300   -0.0964 C.3       2 UNK        -0.1931 
     34 N          26.3195   -2.0448   -1.4272 N.am      2 UNK        -0.4546 
     35 C          26.7638   -2.7776   -2.4577 C.2       1 UNK         0.5154 
     36 O          26.9372   -2.3294   -3.5939 O.2       1 UNK        -0.5181 
     37 C          27.4157    1.9778   -5.8620 C.2       5 UNK         0.5014 
     38 O          28.0723    2.7989   -6.5038 O.2       5 UNK        -0.5248 
     39 N          26.1858    2.2290   -5.3886 N.am      6 UNK        -0.4434 
     40 CA         25.4358    3.4629   -5.6339 C.3       6 UNK         0.0363 
     41 CB         24.2069    3.5010   -4.7114 C.3       6 UNK        -0.1936 
     42 C          25.0037    3.6543   -7.1003 C.2       6 UNK         0.5081 
     43 O          24.8339    4.7992   -7.5215 O.2       6 UNK        -0.5248 
     44 N          24.8183    2.5570   -7.8480 N.am      7 UNK        -0.4718 
     45 CA         24.4633    2.5841   -9.2683 C.3       7 UNK         0.0273 
     46 CB         23.6717    1.3183   -9.6375 C.3       7 UNK        -0.1935 
     47 C          25.7116    2.7380  -10.1497 C.2       7 UNK         0.5018 
     48 O          25.7033    3.5623  -11.0652 O.2       7 UNK        -0.5186 
     49 N          26.7648    1.9688   -9.8489 N.am      8 UNK        -0.4240 
     50 CA         28.0704    2.0421  -10.4988 C.3       8 UNK         0.0235 
     51 CB         28.0638    1.2435  -11.8155 C.3       8 UNK        -0.2000 
     52 C          29.1178    1.4967   -9.5258 C.2       8 UNK         0.4941 
     53 O          28.9366    0.3934   -9.0112 O.2       8 UNK        -0.5273 
     54 N          30.1947    2.2634   -9.3019 N.am      9 UNK        -0.4262 
     55 CA         31.2380    1.9687   -8.3112 C.3       9 UNK         0.0264 
     56 CB         32.2321    3.1389   -8.2446 C.3       9 UNK        -0.1955 
     57 C          31.9830    0.6417   -8.5371 C.2       9 UNK         0.5031 
     58 O          32.3761    0.0112   -7.5553 O.2       9 UNK        -0.5390 
     59 N          32.1481    0.2486   -9.8112 N.am      10 UNK        -0.4204 
     60 CA         32.7135   -1.0164  -10.2971 C.3       10 UNK         0.0237 
     61 CB         31.6985   -2.1623  -10.0830 C.3       10 UNK        -0.1985 
     62 C          34.1067   -1.3107   -9.7084 C.2       10 UNK         0.4970 
     63 O          35.0980   -0.7760  -10.2067 O.2       10 UNK        -0.4914 
     64 N          34.1462   -2.1394   -8.6597 N.am      11 UNK        -0.4285 
     65 CA         35.3217   -2.4390   -7.8330 C.3       11 UNK         0.1007 
     66 C          35.8961   -1.2277   -7.0406 C.2       11 UNK         0.5703 
     67 N          35.1330   -0.1692   -6.7956 N.am      11 UNK        -0.7361 
     68 O          37.0594   -1.2524   -6.6459 O.2       11 UNK        -0.4986 
     69 C69        35.0545   -3.6573   -6.9053 C.3       12 UNK        -0.0947 
     70 S70        33.5082   -3.5229   -5.9361 S.3       12 UNK        -0.2240 
     71 C71        34.1434   -2.9275   -4.3424 C.3       12 UNK         0.0194 
     72 H72        25.7083   -6.3868   -5.3227 H         1 UNK         0.0906 
     73 H73        24.4161   -7.0714   -4.3304 H         1 UNK         0.0906 
     74 H74        24.1018   -5.6569   -5.3367 H         1 UNK         0.0906 
     75 H75        27.2043   -5.6017   -3.8050 H         1 UNK         0.3140 
     76 H76        26.5231   -4.5511   -1.2643 H         1 UNK         0.1085 
     77 H77        29.1564   -4.0838   -2.7639 H         1 UNK         0.0836 
     78 H78        28.7758   -5.5834   -1.9541 H         1 UNK         0.0836 
     79 H79        31.2484   -4.8951   -0.7685 H         1 UNK         0.0731 
     80 H80        31.3981   -3.6058    0.3988 H         1 UNK         0.0731 
     81 H81        32.8376   -4.3550   -2.4291 H         1 UNK         0.1312 
     82 H82        32.9690   -0.4734   -4.2373 H         1 UNK         0.1406 
     83 H83        30.2352   -1.2473   -1.0215 H         1 UNK         0.1631 
     84 H84        31.9344    1.3850   -2.4769 H         1 UNK         0.0717 
     85 H85        30.3374    0.9533   -1.9234 H         1 UNK         0.0717 
     86 H86        28.8910   -0.5670   -3.9755 H         1 UNK         0.0934 
     87 H87        28.1682    0.9333   -3.4510 H         1 UNK         0.0934 
     88 H88        28.7136    0.3701   -6.4049 H         1 UNK         0.0739 
     89 H89        26.9330   -1.1452   -4.9396 H         1 UNK         0.3093 
     90 H90        24.5298   -1.8483   -7.5104 H         1 UNK         0.0818 
     91 H91        26.6656   -3.4422   -5.9925 H         1 UNK         0.0819 
     92 H92        25.2749   -4.0953   -6.8594 H         1 UNK         0.0819 
     93 H93        26.5606   -3.2913   -7.7392 H         1 UNK         0.0819 
     94 H94        24.8853   -2.3809   -4.6397 H         1 UNK         0.3041 
     95 H95        22.4545   -0.0070   -3.6324 H         1 UNK         0.0784 
     96 H96        21.0182   -1.9429   -4.2780 H         1 UNK         0.0793 
     97 H97        22.2183   -3.0661   -3.6554 H         1 UNK         0.0793 
     98 H98        21.3750   -1.9716   -2.5591 H         1 UNK         0.0793 
     99 H99        23.9422   -1.9873   -2.1977 H         1 UNK         0.3024 
    100 H100       26.9164   -0.0892   -1.7520 H         1 UNK         0.1171 
    101 H101       26.3421   -0.2833    0.6453 H         1 UNK         0.0786 
    102 H102       25.3325    0.9375   -0.1099 H         1 UNK         0.0786 
    103 H103       24.6621   -0.6479    0.2487 H         1 UNK         0.0786 
    104 H104       26.2203   -2.4903   -0.5259 H         1 UNK         0.2977 
    105 H105       25.7357    1.5384   -4.7911 H         1 UNK         0.3127 
    106 H106       26.0829    4.3031   -5.3732 H         1 UNK         0.0770 
    107 H107       23.5421    2.6553   -4.8936 H         1 UNK         0.0814 
    108 H108       23.6281    4.4128   -4.8653 H         1 UNK         0.0814 
    109 H109       24.4987    3.4771   -3.6613 H         1 UNK         0.0814 
    110 H110       25.0481    1.6494   -7.4585 H         1 UNK         0.2983 
    111 H111       23.8149    3.4431   -9.4563 H         1 UNK         0.0947 
    112 H112       23.3446    1.3559  -10.6774 H         1 UNK         0.0806 
    113 H113       22.7795    1.2152   -9.0195 H         1 UNK         0.0806 
    114 H114       24.2651    0.4119   -9.5180 H         1 UNK         0.0806 
    115 H115       26.6947    1.2986   -9.0826 H         1 UNK         0.3000 
    116 H116       28.2994    3.0876  -10.7163 H         1 UNK         0.0850 
    117 H117       27.3425    1.6497  -12.5246 H         1 UNK         0.0810 
    118 H118       29.0426    1.2732  -12.2955 H         1 UNK         0.0810 
    119 H119       27.8133    0.1954  -11.6464 H         1 UNK         0.0810 
    120 H120       30.2650    3.1523   -9.7763 H         1 UNK         0.3040 
    121 H121       30.7419    1.8925   -7.3412 H         1 UNK         0.0766 
    122 H122       31.7339    4.0672   -7.9650 H         1 UNK         0.0812 
    123 H123       32.7355    3.2984   -9.1987 H         1 UNK         0.0812 
    124 H124       33.0033    2.9509   -7.4960 H         1 UNK         0.0812 
    125 H125       31.8150    0.8771  -10.5281 H         1 UNK         0.3205 
    126 H126       32.8549   -0.9017  -11.3729 H         1 UNK         0.0754 
    127 H127       32.1009   -3.1171  -10.4239 H         1 UNK         0.0769 
    128 H128       30.7840   -1.9797  -10.6478 H         1 UNK         0.0769 
    129 H129       31.4131   -2.2743   -9.0364 H         1 UNK         0.0769 
    130 H130       33.2687   -2.4687   -8.2849 H         1 UNK         0.2981 
    131 H131       36.1141   -2.7333   -8.5234 H         1 UNK         0.0541 
    132 H132       34.1575   -0.1595   -7.0871 H         1 UNK         0.3459 
    133 H133       35.5166    0.6105   -6.2878 H         1 UNK         0.3459 
    134 H134       35.8987   -3.8421   -6.2381 H         1 UNK         0.0612 
    135 H135       34.9693   -4.5562   -7.5173 H         1 UNK         0.0612 
    136 H136       34.8368   -2.1020   -4.5030 H         1 UNK         0.0624 
    137 H137       34.7180   -3.7228   -3.8653 H         1 UNK         0.0624 
@<TRIPOS>BOND
     1    1    2 1    
     2    1   72 1    
     3    1   73 1    
     4    1   74 1    
     5    2    3 2    
     6    2    4 am   BACKBONE|DICT|INTERRES
     7    4    5 1    
     8    4   75 1    
     9    5    6 1    
    10    5   35 1    
    11    5   76 1    
    12    6    7 1    
    13    6   77 1    
    14    6   78 1    
    15    7    8 1    
    16    8    9 1    
    17    8   79 1    
    18    8   80 1    
    19    9   10 ar   
    20    9   14 ar   
    21   10   11 ar   
    22   10   81 1    
    23   11   12 ar   
    24   11   71 1    
    25   12   13 ar   
    26   12   82 1    
    27   13   14 ar   
    28   13   15 1    
    29   14   83 1    
    30   15   16 1    
    31   15   84 1    
    32   15   85 1    
    33   16   17 1    
    34   17   18 1    
    35   17   86 1    
    36   17   87 1    
    37   18   19 1    
    38   18   37 1    
    39   18   88 1    
    40   19   20 am   BACKBONE|DICT|INTERRES
    41   19   89 1    
    42   20   21 2    
    43   20   22 1    
    44   22   23 1    
    45   22   24 1    
    46   22   90 1    
    47   23   91 1    
    48   23   92 1    
    49   23   93 1    
    50   24   25 am   BACKBONE|DICT|INTERRES
    51   24   94 1    
    52   25   26 2    
    53   25   27 1    
    54   27   28 1    
    55   27   29 1    
    56   27   95 1    
    57   28   96 1    
    58   28   97 1    
    59   28   98 1    
    60   29   30 am   BACKBONE|DICT|INTERRES
    61   29   99 1    
    62   30   31 2    
    63   30   32 1    
    64   32   33 1    
    65   32   34 1    
    66   32  100 1    
    67   33  101 1    
    68   33  102 1    
    69   33  103 1    
    70   34   35 am   BACKBONE|DICT|INTERRES
    71   34  104 1    
    72   35   36 2    
    73   37   38 2    
    74   37   39 am   BACKBONE|DICT|INTERRES
    75   39   40 1    
    76   39  105 1    
    77   40   41 1    
    78   40   42 1    
    79   40  106 1    
    80   41  107 1    
    81   41  108 1    
    82   41  109 1    
    83   42   43 2    
    84   42   44 am   BACKBONE|DICT|INTERRES
    85   44   45 1    
    86   44  110 1    
    87   45   46 1    
    88   45   47 1    
    89   45  111 1    
    90   46  112 1    
    91   46  113 1    
    92   46  114 1    
    93   47   48 2    
    94   47   49 am   BACKBONE|DICT|INTERRES
    95   49   50 1    
    96   49  115 1    
    97   50   51 1    
    98   50   52 1    
    99   50  116 1    
   100   51  117 1    
   101   51  118 1    
   102   51  119 1    
   103   52   53 2    
   104   52   54 am   BACKBONE|DICT|INTERRES
   105   54   55 1    
   106   54  120 1    
   107   55   56 1    
   108   55   57 1    
   109   55  121 1    
   110   56  122 1    
   111   56  123 1    
   112   56  124 1    
   113   57   58 2    
   114   57   59 am   BACKBONE|DICT|INTERRES
   115   59   60 1    
   116   59  125 1    
   117   60   61 1    
   118   60   62 1    
   119   60  126 1    
   120   61  127 1    
   121   61  128 1    
   122   61  129 1    
   123   62   63 2    
   124   62   64 am   BACKBONE|DICT|INTERRES
   125   64   65 1    
   126   64  130 1    
   127   65   66 1    
   128   65   69 1    
   129   65  131 1    
   130   66   67 am   BACKBONE|DICT|INTERRES
   131   66   68 2    
   132   67  132 1    
   133   67  133 1    
   134   69   70 1    
   135   69  134 1    
   136   69  135 1    
   137   70   71 1    
   138   71  136 1    
   139   71  137 1    
@<TRIPOS>SUBSTRUCTURE
     1 UNK         1 GROUP             0       ****    0 ROOT    
