@<TRIPOS>MOLECULE
3R137
137   139    1
SMALL
USER_CHARGES


@<TRIPOS>ATOM
      1 CA         26.9197   -6.7366   -2.9354 C.3       0 UNK        -0.2020 
      2 C          26.7953   -5.5739   -1.9620 C.2       0 UNK         0.4855 
      3 O          26.0226   -5.6533   -1.0066 O.2       0 UNK        -0.5197 
      4 N          27.5530   -4.4959   -2.1971 N.am      1 UNK        -0.4892 
      5 CA         27.4828   -3.2474   -1.4363 C.3       1 UNK         0.0835 
      6 C6         28.7448   -2.3710   -1.6529 C.3       12 UNK        -0.0855 
      7 S7         30.1203   -2.8010   -0.5283 S.3       12 UNK        -0.2931 
      8 C8         30.9140   -4.2505   -1.3022 C.3       12 UNK         0.0378 
      9 C9         31.1698   -4.0663   -2.7907 C.ar      12 UNK        -0.0802 
     10 C10        32.0663   -3.0959   -3.2489 C.ar      12 UNK        -0.0944 
     11 C11        32.2636   -2.9054   -4.6204 C.ar      12 UNK        -0.0787 
     12 C12        31.5524   -3.6902   -5.5337 C.ar      12 UNK        -0.0862 
     13 C13        30.6548   -4.6635   -5.0841 C.ar      12 UNK        -0.0733 
     14 C14        30.4889   -4.8634   -3.7129 C.ar      12 UNK        -0.0832 
     15 C15        29.8522   -5.4989   -6.0699 C.3       12 UNK         0.0240 
     16 S16        28.7075   -4.5002   -7.0752 S.3       12 UNK        -0.2522 
     17 C17        27.7031   -3.5807   -5.8491 C.3       12 UNK        -0.0967 
     18 CA         27.1539   -2.2764   -6.4812 C.3       5 UNK         0.0660 
     19 N          25.8305   -1.8844   -5.9838 N.am      5 UNK        -0.4015 
     20 C          25.0099   -1.0961   -6.6981 C.2       4 UNK         0.4946 
     21 O          25.3141   -0.6048   -7.7875 O.2       4 UNK        -0.5353 
     22 CA         23.6231   -0.7984   -6.1116 C.3       4 UNK         0.0277 
     23 CB         22.8540   -2.0931   -5.7922 C.3       4 UNK        -0.1981 
     24 N          23.6527    0.0570   -4.9265 N.am      4 UNK        -0.4209 
     25 C          24.2023    1.2779   -4.8249 C.2       3 UNK         0.4942 
     26 O          24.8408    1.8291   -5.7189 O.2       3 UNK        -0.5208 
     27 CA         24.0000    2.0112   -3.4856 C.3       3 UNK         0.0250 
     28 CB         22.7615    2.9192   -3.5502 C.3       3 UNK        -0.1990 
     29 N          23.8624    1.0732   -2.3682 N.am      3 UNK        -0.4232 
     30 C          24.8899    0.3708   -1.8753 C.2       2 UNK         0.4993 
     31 O          26.0654    0.6105   -2.1601 O.2       2 UNK        -0.5286 
     32 CA         24.5502   -0.7971   -0.9271 C.3       2 UNK         0.0209 
     33 CB         23.2395   -1.5282   -1.3006 C.3       2 UNK        -0.1931 
     34 N          25.6573   -1.7565   -0.8294 N.am      2 UNK        -0.4546 
     35 C          26.2137   -2.4649   -1.8253 C.2       1 UNK         0.5154 
     36 O          25.8120   -2.4783   -2.9969 O.2       1 UNK        -0.5181 
     37 C          28.1596   -1.1094   -6.4351 C.2       5 UNK         0.5014 
     38 O          29.0351   -1.0449   -7.2975 O.2       5 UNK        -0.5248 
     39 N          27.9770   -0.1719   -5.4905 N.am      6 UNK        -0.4434 
     40 CA         28.7458    1.0723   -5.4061 C.3       6 UNK         0.0363 
     41 CB         28.3369    1.8631   -4.1562 C.3       6 UNK        -0.1936 
     42 C          28.6225    1.9416   -6.6682 C.2       6 UNK         0.5081 
     43 O          29.6315    2.4792   -7.1253 O.2       6 UNK        -0.5248 
     44 N          27.4075    2.0365   -7.2260 N.am      7 UNK        -0.4718 
     45 CA         27.1476    2.6892   -8.5071 C.3       7 UNK         0.0273 
     46 CB         25.6513    3.0156   -8.6350 C.3       7 UNK        -0.1935 
     47 C          27.6222    1.8390   -9.6948 C.2       7 UNK         0.5018 
     48 O          28.2831    2.3771  -10.5827 O.2       7 UNK        -0.5186 
     49 N          27.2845    0.5391   -9.6971 N.am      8 UNK        -0.4240 
     50 CA         27.5680   -0.3838  -10.8038 C.3       8 UNK         0.0235 
     51 CB         26.8519   -1.7242  -10.5776 C.3       8 UNK        -0.2000 
     52 C          29.0669   -0.6108  -11.0613 C.2       8 UNK         0.4941 
     53 O          29.4864   -0.5820  -12.2190 O.2       8 UNK        -0.5273 
     54 N          29.8482   -0.8146   -9.9917 N.am      9 UNK        -0.4262 
     55 CA         31.3050   -0.9690  -10.0584 C.3       9 UNK         0.0264 
     56 CB         31.7685   -1.8618   -8.8961 C.3       9 UNK        -0.1955 
     57 C          32.0483    0.3787  -10.0331 C.2       9 UNK         0.5031 
     58 O          33.2623    0.3907  -10.2404 O.2       9 UNK        -0.5390 
     59 N          31.3241    1.4751   -9.7584 N.am      10 UNK        -0.4204 
     60 CA         31.7969    2.8575   -9.6096 C.3       10 UNK         0.0237 
     61 CB         32.3707    3.3929  -10.9390 C.3       10 UNK        -0.1985 
     62 C          32.7545    3.0696   -8.4177 C.2       10 UNK         0.4970 
     63 O          33.4849    4.0623   -8.3986 O.2       10 UNK        -0.4914 
     64 N          32.7293    2.1533   -7.4413 N.am      11 UNK        -0.4285 
     65 CA         33.4971    2.2319   -6.1919 C.3       11 UNK         0.1007 
     66 C          32.8562    3.1422   -5.1039 C.2       11 UNK         0.5703 
     67 N          31.6118    3.5836   -5.2504 N.am      11 UNK        -0.7361 
     68 O          33.5119    3.4729   -4.1186 O.2       11 UNK        -0.4986 
     69 C69        33.8665    0.8228   -5.6565 C.3       12 UNK        -0.0947 
     70 S70        32.4302   -0.2301   -5.2641 S.3       12 UNK        -0.2240 
     71 C71        33.2400   -1.8483   -5.1114 C.3       12 UNK         0.0194 
     72 H72        27.4227   -6.4455   -3.8569 H         1 UNK         0.0906 
     73 H73        27.4807   -7.5515   -2.4784 H         1 UNK         0.0906 
     74 H74        25.9312   -7.1110   -3.2006 H         1 UNK         0.0906 
     75 H75        28.1422   -4.4667   -3.0133 H         1 UNK         0.3140 
     76 H76        27.4052   -3.5000   -0.3759 H         1 UNK         0.1085 
     77 H77        29.0714   -2.3836   -2.6937 H         1 UNK         0.0836 
     78 H78        28.5267   -1.3207   -1.4445 H         1 UNK         0.0836 
     79 H79        31.8616   -4.4449   -0.7979 H         1 UNK         0.0731 
     80 H80        30.2889   -5.1261   -1.1200 H         1 UNK         0.0731 
     81 H81        32.5969   -2.4779   -2.5373 H         1 UNK         0.1312 
     82 H82        31.6856   -3.5376   -6.5949 H         1 UNK         0.1406 
     83 H83        29.8205   -5.6366   -3.3619 H         1 UNK         0.1631 
     84 H84        29.2820   -6.2745   -5.5569 H         1 UNK         0.0717 
     85 H85        30.5409   -6.0191   -6.7369 H         1 UNK         0.0717 
     86 H86        26.8838   -4.2337   -5.5441 H         1 UNK         0.0934 
     87 H87        28.2767   -3.3664   -4.9473 H         1 UNK         0.0934 
     88 H88        27.0017   -2.4902   -7.5396 H         1 UNK         0.0739 
     89 H89        25.5633   -2.2048   -5.0577 H         1 UNK         0.3093 
     90 H90        23.0634   -0.2597   -6.8791 H         1 UNK         0.0818 
     91 H91        21.8154   -1.8824   -5.5365 H         1 UNK         0.0819 
     92 H92        22.8413   -2.7631   -6.6533 H         1 UNK         0.0819 
     93 H93        23.2972   -2.6402   -4.9590 H         1 UNK         0.0819 
     94 H94        23.1663   -0.2976   -4.1180 H         1 UNK         0.3041 
     95 H95        24.8758    2.6412   -3.3139 H         1 UNK         0.0784 
     96 H96        22.8514    3.6407   -4.3637 H         1 UNK         0.0793 
     97 H97        21.8471    2.3494   -3.7201 H         1 UNK         0.0793 
     98 H98        22.6379    3.4874   -2.6280 H         1 UNK         0.0793 
     99 H99        22.9260    0.8673   -2.0508 H         1 UNK         0.3024 
    100 H100       24.4267   -0.3604    0.0654 H         1 UNK         0.1171 
    101 H101       23.2520   -1.8910   -2.3289 H         1 UNK         0.0786 
    102 H102       23.0745   -2.3893   -0.6525 H         1 UNK         0.0786 
    103 H103       22.3693   -0.8813   -1.1866 H         1 UNK         0.0786 
    104 H104       26.1018   -1.7957    0.0774 H         1 UNK         0.2977 
    105 H105       27.2226   -0.2871   -4.8287 H         1 UNK         0.3127 
    106 H106       29.7952    0.7996   -5.3014 H         1 UNK         0.0770 
    107 H107       27.2831    2.1417   -4.1807 H         1 UNK         0.0814 
    108 H108       28.9159    2.7832   -4.0698 H         1 UNK         0.0814 
    109 H109       28.5117    1.2860   -3.2481 H         1 UNK         0.0814 
    110 H110       26.6091    1.6154   -6.7605 H         1 UNK         0.2983 
    111 H111       27.6999    3.6315   -8.5313 H         1 UNK         0.0947 
    112 H112       25.4367    3.5059   -9.5854 H         1 UNK         0.0806 
    113 H113       25.3255    3.6884   -7.8415 H         1 UNK         0.0806 
    114 H114       25.0346    2.1173   -8.5818 H         1 UNK         0.0806 
    115 H115       26.7128    0.1816   -8.9355 H         1 UNK         0.3000 
    116 H116       27.1481    0.0669  -11.7057 H         1 UNK         0.0850 
    117 H117       26.9409   -2.3627  -11.4574 H         1 UNK         0.0810 
    118 H118       25.7881   -1.5842  -10.3849 H         1 UNK         0.0810 
    119 H119       27.2796   -2.2730   -9.7400 H         1 UNK         0.0810 
    120 H120       29.4329   -0.8512   -9.0597 H         1 UNK         0.3040 
    121 H121       31.5714   -1.4705  -10.9912 H         1 UNK         0.0766 
    122 H122       32.8393   -2.0605   -8.9554 H         1 UNK         0.0812 
    123 H123       31.2566   -2.8242   -8.9090 H         1 UNK         0.0812 
    124 H124       31.5783   -1.3942   -7.9301 H         1 UNK         0.0812 
    125 H125       30.3315    1.3482   -9.6114 H         1 UNK         0.3205 
    126 H126       30.9080    3.4471   -9.3803 H         1 UNK         0.0754 
    127 H127       32.5714    4.4631  -10.8771 H         1 UNK         0.0769 
    128 H128       31.6692    3.2444  -11.7601 H         1 UNK         0.0769 
    129 H129       33.3076    2.9021  -11.2037 H         1 UNK         0.0769 
    130 H130       32.0619    1.3989   -7.5025 H         1 UNK         0.2981 
    131 H131       34.4466    2.7145   -6.4310 H         1 UNK         0.0541 
    132 H132       31.0468    3.2866   -6.0394 H         1 UNK         0.3459 
    133 H133       31.2198    4.1874   -4.5467 H         1 UNK         0.3459 
    134 H134       34.4920    0.9027   -4.7656 H         1 UNK         0.0612 
    135 H135       34.4746    0.3063   -6.4009 H         1 UNK         0.0612 
    136 H136       34.0805   -1.7693   -4.4202 H         1 UNK         0.0624 
    137 H137       33.6567   -2.1361   -6.0779 H         1 UNK         0.0624 
@<TRIPOS>BOND
     1    1    2 1    
     2    1   72 1    
     3    1   73 1    
     4    1   74 1    
     5    2    3 2    
     6    2    4 am   BACKBONE|DICT|INTERRES
     7    4    5 1    
     8    4   75 1    
     9    5    6 1    
    10    5   35 1    
    11    5   76 1    
    12    6    7 1    
    13    6   77 1    
    14    6   78 1    
    15    7    8 1    
    16    8    9 1    
    17    8   79 1    
    18    8   80 1    
    19    9   10 ar   
    20    9   14 ar   
    21   10   11 ar   
    22   10   81 1    
    23   11   12 ar   
    24   11   71 1    
    25   12   13 ar   
    26   12   82 1    
    27   13   14 ar   
    28   13   15 1    
    29   14   83 1    
    30   15   16 1    
    31   15   84 1    
    32   15   85 1    
    33   16   17 1    
    34   17   18 1    
    35   17   86 1    
    36   17   87 1    
    37   18   19 1    
    38   18   37 1    
    39   18   88 1    
    40   19   20 am   BACKBONE|DICT|INTERRES
    41   19   89 1    
    42   20   21 2    
    43   20   22 1    
    44   22   23 1    
    45   22   24 1    
    46   22   90 1    
    47   23   91 1    
    48   23   92 1    
    49   23   93 1    
    50   24   25 am   BACKBONE|DICT|INTERRES
    51   24   94 1    
    52   25   26 2    
    53   25   27 1    
    54   27   28 1    
    55   27   29 1    
    56   27   95 1    
    57   28   96 1    
    58   28   97 1    
    59   28   98 1    
    60   29   30 am   BACKBONE|DICT|INTERRES
    61   29   99 1    
    62   30   31 2    
    63   30   32 1    
    64   32   33 1    
    65   32   34 1    
    66   32  100 1    
    67   33  101 1    
    68   33  102 1    
    69   33  103 1    
    70   34   35 am   BACKBONE|DICT|INTERRES
    71   34  104 1    
    72   35   36 2    
    73   37   38 2    
    74   37   39 am   BACKBONE|DICT|INTERRES
    75   39   40 1    
    76   39  105 1    
    77   40   41 1    
    78   40   42 1    
    79   40  106 1    
    80   41  107 1    
    81   41  108 1    
    82   41  109 1    
    83   42   43 2    
    84   42   44 am   BACKBONE|DICT|INTERRES
    85   44   45 1    
    86   44  110 1    
    87   45   46 1    
    88   45   47 1    
    89   45  111 1    
    90   46  112 1    
    91   46  113 1    
    92   46  114 1    
    93   47   48 2    
    94   47   49 am   BACKBONE|DICT|INTERRES
    95   49   50 1    
    96   49  115 1    
    97   50   51 1    
    98   50   52 1    
    99   50  116 1    
   100   51  117 1    
   101   51  118 1    
   102   51  119 1    
   103   52   53 2    
   104   52   54 am   BACKBONE|DICT|INTERRES
   105   54   55 1    
   106   54  120 1    
   107   55   56 1    
   108   55   57 1    
   109   55  121 1    
   110   56  122 1    
   111   56  123 1    
   112   56  124 1    
   113   57   58 2    
   114   57   59 am   BACKBONE|DICT|INTERRES
   115   59   60 1    
   116   59  125 1    
   117   60   61 1    
   118   60   62 1    
   119   60  126 1    
   120   61  127 1    
   121   61  128 1    
   122   61  129 1    
   123   62   63 2    
   124   62   64 am   BACKBONE|DICT|INTERRES
   125   64   65 1    
   126   64  130 1    
   127   65   66 1    
   128   65   69 1    
   129   65  131 1    
   130   66   67 am   BACKBONE|DICT|INTERRES
   131   66   68 2    
   132   67  132 1    
   133   67  133 1    
   134   69   70 1    
   135   69  134 1    
   136   69  135 1    
   137   70   71 1    
   138   71  136 1    
   139   71  137 1    
@<TRIPOS>SUBSTRUCTURE
     1 UNK         1 GROUP             0       ****    0 ROOT    
