@<TRIPOS>MOLECULE
3R137
137   139    1
SMALL
USER_CHARGES


@<TRIPOS>ATOM
      1 CA         29.8561   -0.1344   -3.2828 C.3       0 UNK        -0.2020 
      2 C          30.3534   -0.0459   -1.8432 C.2       0 UNK         0.4855 
      3 O          30.9760    0.9490   -1.4801 O.2       0 UNK        -0.5197 
      4 N          30.1202   -1.0488   -0.9852 N.am      1 UNK        -0.4892 
      5 CA         29.2860   -2.2352   -1.2057 C.3       1 UNK         0.0835 
      6 C6         29.5722   -3.3004   -0.1146 C.3       12 UNK        -0.0855 
      7 S7         28.7952   -4.9218   -0.4443 S.3       12 UNK        -0.2931 
      8 C8         30.1855   -5.8877   -1.1124 C.3       12 UNK         0.0378 
      9 C9         30.7069   -5.3142   -2.4224 C.ar      12 UNK        -0.0802 
     10 C10        32.0042   -4.8028   -2.4990 C.ar      12 UNK        -0.0944 
     11 C11        32.5106   -4.3074   -3.7041 C.ar      12 UNK        -0.0787 
     12 C12        31.6852   -4.3030   -4.8387 C.ar      12 UNK        -0.0862 
     13 C13        30.3810   -4.8080   -4.7756 C.ar      12 UNK        -0.0733 
     14 C14        29.9048   -5.3240   -3.5661 C.ar      12 UNK        -0.0832 
     15 C15        29.5100   -4.8598   -6.0270 C.3       12 UNK         0.0240 
     16 S16        27.8638   -4.1162   -5.7759 S.3       12 UNK        -0.2522 
     17 C17        28.2477   -2.3367   -5.8146 C.3       12 UNK        -0.0967 
     18 CA         27.4268   -1.5865   -6.8926 C.3       5 UNK         0.0660 
     19 N          25.9791   -1.6981   -6.6914 N.am      5 UNK        -0.4015 
     20 C          25.0494   -1.3228   -7.5822 C.2       4 UNK         0.4946 
     21 O          25.3084   -0.8870   -8.7036 O.2       4 UNK        -0.5353 
     22 CA         23.5810   -1.4136   -7.1325 C.3       4 UNK         0.0277 
     23 CB         23.0448   -2.8417   -7.3215 C.3       4 UNK        -0.1981 
     24 N          23.3866   -0.9941   -5.7421 N.am      4 UNK        -0.4209 
     25 C          23.5841    0.2538   -5.2909 C.2       3 UNK         0.4942 
     26 O          23.8871    1.2025   -6.0117 O.2       3 UNK        -0.5208 
     27 CA         23.4830    0.4694   -3.7704 C.3       3 UNK         0.0250 
     28 CB         22.0303    0.7580   -3.3604 C.3       3 UNK        -0.1990 
     29 N          24.0048   -0.6564   -2.9868 N.am      3 UNK        -0.4232 
     30 C          25.2627   -1.1132   -3.0589 C.2       2 UNK         0.4993 
     31 O          26.1256   -0.6253   -3.7935 O.2       2 UNK        -0.5286 
     32 CA         25.5746   -2.3726   -2.2358 C.3       2 UNK         0.0209 
     33 CB         24.9920   -3.6187   -2.9251 C.3       2 UNK        -0.1931 
     34 N          27.0127   -2.5738   -2.0580 N.am      2 UNK        -0.4546 
     35 C          27.7905   -1.8482   -1.2457 C.2       1 UNK         0.5154 
     36 O          27.3703   -0.9367   -0.5274 O.2       1 UNK        -0.5181 
     37 C          27.8431   -0.1088   -6.9708 C.2       5 UNK         0.5014 
     38 O          28.5432    0.2696   -7.9090 O.2       5 UNK        -0.5248 
     39 N          27.3558    0.7060   -6.0231 N.am      6 UNK        -0.4434 
     40 CA         27.5691    2.1537   -5.9812 C.3       6 UNK         0.0363 
     41 CB         26.9540    2.7313   -4.6974 C.3       6 UNK        -0.1936 
     42 C          27.0319    2.8781   -7.2291 C.2       6 UNK         0.5081 
     43 O          27.7415    3.7142   -7.7872 O.2       6 UNK        -0.5248 
     44 N          25.8216    2.5140   -7.6792 N.am      7 UNK        -0.4718 
     45 CA         25.1998    3.0205   -8.9088 C.3       7 UNK         0.0273 
     46 CB         23.7450    2.5328   -8.9927 C.3       7 UNK        -0.1935 
     47 C          25.9707    2.6385  -10.1849 C.2       7 UNK         0.5018 
     48 O          26.0593    3.4544  -11.1029 O.2       7 UNK        -0.5186 
     49 N          26.5413    1.4262  -10.2086 N.am      8 UNK        -0.4240 
     50 CA         27.4260    0.9370  -11.2707 C.3       8 UNK         0.0235 
     51 CB         27.4605   -0.6003  -11.2185 C.3       8 UNK        -0.2000 
     52 C          28.8567    1.5098  -11.1990 C.2       8 UNK         0.4941 
     53 O          29.6410    1.2533  -12.1136 O.2       8 UNK        -0.5273 
     54 N          29.1795    2.2443  -10.1225 N.am      9 UNK        -0.4262 
     55 CA         30.4936    2.7893   -9.7632 C.3       9 UNK         0.0264 
     56 CB         30.9725    3.8305  -10.7975 C.3       9 UNK        -0.1955 
     57 C          31.5449    1.6996   -9.4687 C.2       9 UNK         0.5031 
     58 O          32.7400    1.9344   -9.6602 O.2       9 UNK        -0.5390 
     59 N          31.0930    0.5372   -8.9821 N.am      10 UNK        -0.4204 
     60 CA         31.9344   -0.5612   -8.5235 C.3       10 UNK         0.0237 
     61 CB         31.2189   -1.8981   -8.7859 C.3       10 UNK        -0.1985 
     62 C          32.2035   -0.3593   -7.0294 C.2       10 UNK         0.4970 
     63 O          31.2608   -0.3927   -6.2388 O.2       10 UNK        -0.4914 
     64 N          33.4748   -0.1361   -6.6799 N.am      11 UNK        -0.4285 
     65 CA         33.9707    0.0735   -5.3062 C.3       11 UNK         0.1007 
     66 C          33.5489    1.4220   -4.6466 C.2       11 UNK         0.5703 
     67 N          32.9274    2.3505   -5.3643 N.am      11 UNK        -0.7361 
     68 O          33.8383    1.6547   -3.4757 O.2       11 UNK        -0.4986 
     69 C69        33.7216   -1.1473   -4.3726 C.3       12 UNK        -0.0947 
     70 S70        34.4163   -2.6867   -5.0552 S.3       12 UNK        -0.2240 
     71 C71        33.9766   -3.8708   -3.7431 C.3       12 UNK         0.0194 
     72 H72        30.2838    0.6692   -3.8827 H         1 UNK         0.0906 
     73 H73        30.1519   -1.0743   -3.7470 H         1 UNK         0.0906 
     74 H74        28.7724   -0.0361   -3.3277 H         1 UNK         0.0906 
     75 H75        30.4490   -0.9358   -0.0371 H         1 UNK         0.3140 
     76 H76        29.5605   -2.6617   -2.1722 H         1 UNK         0.1085 
     77 H77        30.6488   -3.4484   -0.0136 H         1 UNK         0.0836 
     78 H78        29.2316   -2.9500    0.8619 H         1 UNK         0.0836 
     79 H79        30.9770   -5.9424   -0.3632 H         1 UNK         0.0731 
     80 H80        29.8537   -6.9133   -1.2802 H         1 UNK         0.0731 
     81 H81        32.6359   -4.8176   -1.6210 H         1 UNK         0.1312 
     82 H82        32.0639   -3.9373   -5.7826 H         1 UNK         0.1406 
     83 H83        28.9063   -5.7373   -3.5141 H         1 UNK         0.1631 
     84 H84        30.0003   -4.3734   -6.8719 H         1 UNK         0.0717 
     85 H85        29.3777   -5.9045   -6.3110 H         1 UNK         0.0717 
     86 H86        28.0583   -1.9316   -4.8217 H         1 UNK         0.0934 
     87 H87        29.3167   -2.2033   -5.9898 H         1 UNK         0.0934 
     88 H88        27.6561   -2.0366   -7.8610 H         1 UNK         0.0739 
     89 H89        25.6834   -2.0049   -5.7775 H         1 UNK         0.3093 
     90 H90        22.9992   -0.7431   -7.7688 H         1 UNK         0.0818 
     91 H91        21.9820   -2.9011   -7.0860 H         1 UNK         0.0819 
     92 H92        23.1637   -3.1674   -8.3560 H         1 UNK         0.0819 
     93 H93        23.5701   -3.5610   -6.6916 H         1 UNK         0.0819 
     94 H94        23.1221   -1.7074   -5.0789 H         1 UNK         0.3041 
     95 H95        24.0863    1.3454   -3.5243 H         1 UNK         0.0784 
     96 H96        21.6294    1.6053   -3.9189 H         1 UNK         0.0793 
     97 H97        21.3774   -0.0950   -3.5495 H         1 UNK         0.0793 
     98 H98        21.9587    1.0086   -2.3018 H         1 UNK         0.0793 
     99 H99        23.3523   -1.1150   -2.3666 H         1 UNK         0.3024 
    100 H100       25.1179   -2.2621   -1.2493 H         1 UNK         0.1171 
    101 H101       25.1983   -4.5212   -2.3490 H         1 UNK         0.0786 
    102 H102       23.9085   -3.5473   -3.0270 H         1 UNK         0.0786 
    103 H103       25.4053   -3.7607   -3.9243 H         1 UNK         0.0786 
    104 H104       27.4318   -3.3123   -2.6038 H         1 UNK         0.2977 
    105 H105       26.8021    0.2990   -5.2712 H         1 UNK         0.3127 
    106 H106       28.6483    2.3178   -5.9439 H         1 UNK         0.0770 
    107 H107       25.8725    2.5985   -4.6733 H         1 UNK         0.0814 
    108 H108       27.1532    3.8007   -4.6179 H         1 UNK         0.0814 
    109 H109       27.3695    2.2556   -3.8087 H         1 UNK         0.0814 
    110 H110       25.2684    1.8628   -7.1259 H         1 UNK         0.2983 
    111 H111       25.1906    4.1109   -8.8480 H         1 UNK         0.0947 
    112 H112       23.2572    2.9077   -9.8935 H         1 UNK         0.0806 
    113 H113       23.1612    2.8796   -8.1400 H         1 UNK         0.0806 
    114 H114       23.6865    1.4441   -9.0171 H         1 UNK         0.0806 
    115 H115       26.3708    0.7924   -9.4340 H         1 UNK         0.3000 
    116 H116       27.0073    1.2353  -12.2341 H         1 UNK         0.0850 
    117 H117       26.4610   -1.0231  -11.3217 H         1 UNK         0.0810 
    118 H118       27.8802   -0.9614  -10.2790 H         1 UNK         0.0810 
    119 H119       28.0695   -1.0084  -12.0261 H         1 UNK         0.0810 
    120 H120       28.4614    2.3788   -9.4202 H         1 UNK         0.3040 
    121 H121       30.3441    3.3151   -8.8192 H         1 UNK         0.0766 
    122 H122       30.2103    4.5882  -10.9791 H         1 UNK         0.0812 
    123 H123       31.2231    3.3688  -11.7528 H         1 UNK         0.0812 
    124 H124       31.8652    4.3487  -10.4452 H         1 UNK         0.0812 
    125 H125       30.1042    0.4649   -8.7361 H         1 UNK         0.3205 
    126 H126       32.8780   -0.5674   -9.0734 H         1 UNK         0.0754 
    127 H127       30.2552   -1.9505   -8.2793 H         1 UNK         0.0769 
    128 H128       31.8197   -2.7374   -8.4334 H         1 UNK         0.0769 
    129 H129       31.0416   -2.0472   -9.8511 H         1 UNK         0.0769 
    130 H130       34.1773   -0.0920   -7.4037 H         1 UNK         0.2981 
    131 H131       35.0515    0.1666   -5.4174 H         1 UNK         0.0541 
    132 H132       32.6794    3.2248   -4.9297 H         1 UNK         0.3459 
    133 H133       32.7011    2.1792   -6.3299 H         1 UNK         0.3459 
    134 H134       32.6561   -1.2897   -4.1881 H         1 UNK         0.0612 
    135 H135       34.1809   -0.9826   -3.3965 H         1 UNK         0.0612 
    136 H136       34.2675   -3.4437   -2.7820 H         1 UNK         0.0624 
    137 H137       34.5880   -4.7637   -3.8788 H         1 UNK         0.0624 
@<TRIPOS>BOND
     1    1    2 1    
     2    1   72 1    
     3    1   73 1    
     4    1   74 1    
     5    2    3 2    
     6    2    4 am   BACKBONE|DICT|INTERRES
     7    4    5 1    
     8    4   75 1    
     9    5    6 1    
    10    5   35 1    
    11    5   76 1    
    12    6    7 1    
    13    6   77 1    
    14    6   78 1    
    15    7    8 1    
    16    8    9 1    
    17    8   79 1    
    18    8   80 1    
    19    9   10 ar   
    20    9   14 ar   
    21   10   11 ar   
    22   10   81 1    
    23   11   12 ar   
    24   11   71 1    
    25   12   13 ar   
    26   12   82 1    
    27   13   14 ar   
    28   13   15 1    
    29   14   83 1    
    30   15   16 1    
    31   15   84 1    
    32   15   85 1    
    33   16   17 1    
    34   17   18 1    
    35   17   86 1    
    36   17   87 1    
    37   18   19 1    
    38   18   37 1    
    39   18   88 1    
    40   19   20 am   BACKBONE|DICT|INTERRES
    41   19   89 1    
    42   20   21 2    
    43   20   22 1    
    44   22   23 1    
    45   22   24 1    
    46   22   90 1    
    47   23   91 1    
    48   23   92 1    
    49   23   93 1    
    50   24   25 am   BACKBONE|DICT|INTERRES
    51   24   94 1    
    52   25   26 2    
    53   25   27 1    
    54   27   28 1    
    55   27   29 1    
    56   27   95 1    
    57   28   96 1    
    58   28   97 1    
    59   28   98 1    
    60   29   30 am   BACKBONE|DICT|INTERRES
    61   29   99 1    
    62   30   31 2    
    63   30   32 1    
    64   32   33 1    
    65   32   34 1    
    66   32  100 1    
    67   33  101 1    
    68   33  102 1    
    69   33  103 1    
    70   34   35 am   BACKBONE|DICT|INTERRES
    71   34  104 1    
    72   35   36 2    
    73   37   38 2    
    74   37   39 am   BACKBONE|DICT|INTERRES
    75   39   40 1    
    76   39  105 1    
    77   40   41 1    
    78   40   42 1    
    79   40  106 1    
    80   41  107 1    
    81   41  108 1    
    82   41  109 1    
    83   42   43 2    
    84   42   44 am   BACKBONE|DICT|INTERRES
    85   44   45 1    
    86   44  110 1    
    87   45   46 1    
    88   45   47 1    
    89   45  111 1    
    90   46  112 1    
    91   46  113 1    
    92   46  114 1    
    93   47   48 2    
    94   47   49 am   BACKBONE|DICT|INTERRES
    95   49   50 1    
    96   49  115 1    
    97   50   51 1    
    98   50   52 1    
    99   50  116 1    
   100   51  117 1    
   101   51  118 1    
   102   51  119 1    
   103   52   53 2    
   104   52   54 am   BACKBONE|DICT|INTERRES
   105   54   55 1    
   106   54  120 1    
   107   55   56 1    
   108   55   57 1    
   109   55  121 1    
   110   56  122 1    
   111   56  123 1    
   112   56  124 1    
   113   57   58 2    
   114   57   59 am   BACKBONE|DICT|INTERRES
   115   59   60 1    
   116   59  125 1    
   117   60   61 1    
   118   60   62 1    
   119   60  126 1    
   120   61  127 1    
   121   61  128 1    
   122   61  129 1    
   123   62   63 2    
   124   62   64 am   BACKBONE|DICT|INTERRES
   125   64   65 1    
   126   64  130 1    
   127   65   66 1    
   128   65   69 1    
   129   65  131 1    
   130   66   67 am   BACKBONE|DICT|INTERRES
   131   66   68 2    
   132   67  132 1    
   133   67  133 1    
   134   69   70 1    
   135   69  134 1    
   136   69  135 1    
   137   70   71 1    
   138   71  136 1    
   139   71  137 1    
@<TRIPOS>SUBSTRUCTURE
     1 UNK         1 GROUP             0       ****    0 ROOT    
