@<TRIPOS>MOLECULE
3R137
137   139    1
SMALL
USER_CHARGES


@<TRIPOS>ATOM
      1 CA         29.8755    0.3590    1.1168 C.3       0 UNK        -0.2020 
      2 C          29.2869   -0.5513    0.0494 C.2       0 UNK         0.4855 
      3 O          29.0689   -0.1086   -1.0778 O.2       0 UNK        -0.5197 
      4 N          29.0386   -1.8203    0.3938 N.am      1 UNK        -0.4892 
      5 CA         28.4391   -2.8240   -0.4932 C.3       1 UNK         0.0835 
      6 C6         28.7371   -4.2712   -0.0202 C.3       12 UNK        -0.0855 
      7 S7         30.5271   -4.5875    0.1816 S.3       12 UNK        -0.2931 
      8 C8         30.9529   -5.4946   -1.3445 C.3       12 UNK         0.0378 
      9 C9         30.6160   -4.7231   -2.6162 C.ar      12 UNK        -0.0802 
     10 C10        31.0871   -3.4216   -2.8088 C.ar      12 UNK        -0.0944 
     11 C11        30.7364   -2.6981   -3.9518 C.ar      12 UNK        -0.0787 
     12 C12        29.9440   -3.3062   -4.9330 C.ar      12 UNK        -0.0862 
     13 C13        29.4931   -4.6258   -4.7734 C.ar      12 UNK        -0.0733 
     14 C14        29.8289   -5.3174   -3.6055 C.ar      12 UNK        -0.0832 
     15 C15        28.6649   -5.3715   -5.8243 C.3       12 UNK         0.0240 
     16 S16        28.0200   -4.3778   -7.2106 S.3       12 UNK        -0.2522 
     17 C17        26.7009   -3.4354   -6.3782 C.3       12 UNK        -0.0967 
     18 CA         26.3163   -2.1623   -7.1667 C.3       5 UNK         0.0660 
     19 N          25.0056   -1.6455   -6.7745 N.am      5 UNK        -0.4015 
     20 C          24.3083   -0.7394   -7.4740 C.2       4 UNK         0.4946 
     21 O          24.6756   -0.2749   -8.5533 O.2       4 UNK        -0.5353 
     22 CA         22.9994   -0.2394   -6.8409 C.3       4 UNK         0.0277 
     23 CB         21.8421   -1.2010   -7.1547 C.3       4 UNK        -0.1981 
     24 N          23.1120   -0.0562   -5.3909 N.am      4 UNK        -0.4209 
     25 C          23.8786    0.8790   -4.8115 C.2       3 UNK         0.4942 
     26 O          24.5298    1.7143   -5.4385 O.2       3 UNK        -0.5208 
     27 CA         23.9655    0.8525   -3.2756 C.3       3 UNK         0.0250 
     28 CB         22.7858    1.6182   -2.6552 C.3       3 UNK        -0.1990 
     29 N          24.0413   -0.4947   -2.6930 N.am      3 UNK        -0.4232 
     30 C          24.9996   -1.3911   -2.9654 C.2       2 UNK         0.4993 
     31 O          25.8644   -1.2305   -3.8286 O.2       2 UNK        -0.5286 
     32 CA         24.9862   -2.7045   -2.1739 C.3       2 UNK         0.0209 
     33 CB         24.4299   -3.8501   -3.0350 C.3       2 UNK        -0.1931 
     34 N          26.3582   -3.0212   -1.7748 N.am      2 UNK        -0.4546 
     35 C          26.9228   -2.5855   -0.6420 C.2       1 UNK         0.5154 
     36 O          26.2918   -2.0323    0.2640 O.2       1 UNK        -0.5181 
     37 C          27.3929   -1.0668   -7.0678 C.2       5 UNK         0.5014 
     38 O          28.1729   -0.9121   -8.0032 O.2       5 UNK        -0.5248 
     39 N          27.3837   -0.2946   -5.9728 N.am      6 UNK        -0.4434 
     40 CA         28.2801    0.8408   -5.7437 C.3       6 UNK         0.0363 
     41 CB         28.0647    1.3793   -4.3213 C.3       6 UNK        -0.1936 
     42 C          28.1359    1.9707   -6.7788 C.2       6 UNK         0.5081 
     43 O          29.1178    2.6588   -7.0551 O.2       6 UNK        -0.5248 
     44 N          26.9281    2.1435   -7.3322 N.am      7 UNK        -0.4718 
     45 CA         26.6572    3.0588   -8.4400 C.3       7 UNK         0.0273 
     46 CB         25.1529    3.3726   -8.4856 C.3       7 UNK        -0.1935 
     47 C          27.1391    2.5035   -9.7925 C.2       7 UNK         0.5018 
     48 O          27.6519    3.2721  -10.6070 O.2       7 UNK        -0.5186 
     49 N          26.9389    1.1980  -10.0220 N.am      8 UNK        -0.4240 
     50 CA         27.2673    0.5164  -11.2757 C.3       8 UNK         0.0235 
     51 CB         26.4501   -0.7824  -11.3789 C.3       8 UNK        -0.2000 
     52 C          28.7681    0.2239  -11.4408 C.2       8 UNK         0.4941 
     53 O          29.3200    0.4890  -12.5103 O.2       8 UNK        -0.5273 
     54 N          29.3900   -0.3514  -10.4054 N.am      9 UNK        -0.4262 
     55 CA         30.7955   -0.7556  -10.3869 C.3       9 UNK         0.0264 
     56 CB         30.9642   -1.9067   -9.3790 C.3       9 UNK        -0.1955 
     57 C          31.7142    0.4175  -10.0170 C.2       9 UNK         0.5031 
     58 O          31.2623    1.4154   -9.4507 O.2       9 UNK        -0.5390 
     59 N          33.0145    0.2551  -10.2920 N.am      10 UNK        -0.4204 
     60 CA         34.0783    1.2140   -9.9729 C.3       10 UNK         0.0237 
     61 CB         35.2759    0.9566  -10.9078 C.3       10 UNK        -0.1985 
     62 C          34.4737    1.1948   -8.4793 C.2       10 UNK         0.4970 
     63 O          35.6580    1.0828   -8.1567 O.2       10 UNK        -0.4914 
     64 N          33.4763    1.3015   -7.5946 N.am      11 UNK        -0.4285 
     65 CA         33.6383    1.3745   -6.1341 C.3       11 UNK         0.1007 
     66 C          34.1104    2.7653   -5.6160 C.2       11 UNK         0.5703 
     67 N          34.1206    3.8163   -6.4283 N.am      11 UNK        -0.7361 
     68 O          34.4884    2.8897   -4.4534 O.2       11 UNK        -0.4986 
     69 C69        32.3521    0.9125   -5.4011 C.3       12 UNK        -0.0947 
     70 S70        31.9985   -0.8604   -5.6528 S.3       12 UNK        -0.2240 
     71 C71        31.1659   -1.2412   -4.0778 C.3       12 UNK         0.0194 
     72 H72        30.8368    0.7510    0.7863 H         1 UNK         0.0906 
     73 H73        29.2087    1.2010    1.3000 H         1 UNK         0.0906 
     74 H74        30.0289   -0.1641    2.0605 H         1 UNK         0.0906 
     75 H75        29.2257   -2.1305    1.3363 H         1 UNK         0.3140 
     76 H76        28.8749   -2.6889   -1.4838 H         1 UNK         0.1085 
     77 H77        28.2526   -4.4650    0.9388 H         1 UNK         0.0836 
     78 H78        28.3224   -5.0001   -0.7193 H         1 UNK         0.0836 
     79 H79        32.0221   -5.7104   -1.3380 H         1 UNK         0.0731 
     80 H80        30.4451   -6.4603   -1.3275 H         1 UNK         0.0731 
     81 H81        31.6915   -2.9576   -2.0411 H         1 UNK         0.1312 
     82 H82        29.6893   -2.7400   -5.8176 H         1 UNK         0.1406 
     83 H83        29.4786   -6.3323   -3.4702 H         1 UNK         0.1631 
     84 H84        27.8237   -5.8692   -5.3390 H         1 UNK         0.0717 
     85 H85        29.2872   -6.1624   -6.2449 H         1 UNK         0.0717 
     86 H86        25.8389   -4.0992   -6.2965 H         1 UNK         0.0934 
     87 H87        26.9977   -3.1927   -5.3561 H         1 UNK         0.0934 
     88 H88        26.2342   -2.4380   -8.2208 H         1 UNK         0.0739 
     89 H89        24.6665   -1.9186   -5.8644 H         1 UNK         0.3093 
     90 H90        22.7676    0.7304   -7.2870 H         1 UNK         0.0818 
     91 H91        20.8935   -0.8149   -6.7812 H         1 UNK         0.0819 
     92 H92        21.7320   -1.3379   -8.2315 H         1 UNK         0.0819 
     93 H93        22.0003   -2.1869   -6.7157 H         1 UNK         0.0819 
     94 H94        22.5984   -0.6938   -4.7999 H         1 UNK         0.3041 
     95 H95        24.8856    1.3717   -2.9992 H         1 UNK         0.0784 
     96 H96        22.7206    2.6291   -3.0606 H         1 UNK         0.0793 
     97 H97        21.8330    1.1257   -2.8532 H         1 UNK         0.0793 
     98 H98        22.8977    1.7128   -1.5749 H         1 UNK         0.0793 
     99 H99        23.3580   -0.7135   -1.9818 H         1 UNK         0.3024 
    100 H100       24.3534   -2.5929   -1.2901 H         1 UNK         0.1171 
    101 H101       23.4094   -3.6388   -3.3571 H         1 UNK         0.0786 
    102 H102       24.4042   -4.7856   -2.4758 H         1 UNK         0.0786 
    103 H103       25.0287   -4.0156   -3.9304 H         1 UNK         0.0786 
    104 H104       26.9463   -3.4228   -2.4908 H         1 UNK         0.2977 
    105 H105       26.7376   -0.5265   -5.2179 H         1 UNK         0.3127 
    106 H106       29.2992    0.4630   -5.8244 H         1 UNK         0.0770 
    107 H107       27.0694    1.8080   -4.2021 H         1 UNK         0.0814 
    108 H108       28.7890    2.1601   -4.0864 H         1 UNK         0.0814 
    109 H109       28.1791    0.5932   -3.5749 H         1 UNK         0.0814 
    110 H110       26.1518    1.5939   -6.9837 H         1 UNK         0.2983 
    111 H111       27.1912    3.9939   -8.2561 H         1 UNK         0.0947 
    112 H112       24.9254    4.0772   -9.2866 H         1 UNK         0.0806 
    113 H113       24.8139    3.8212   -7.5515 H         1 UNK         0.0806 
    114 H114       24.5566    2.4762   -8.6594 H         1 UNK         0.0806 
    115 H115       26.4793    0.6438   -9.3082 H         1 UNK         0.3000 
    116 H116       26.9662    1.1639  -12.1024 H         1 UNK         0.0850 
    117 H117       26.6630   -1.3064  -12.3116 H         1 UNK         0.0810 
    118 H118       25.3793   -0.5785  -11.3577 H         1 UNK         0.0810 
    119 H119       26.6742   -1.4668  -10.5596 H         1 UNK         0.0810 
    120 H120       28.8758   -0.4940   -9.5344 H         1 UNK         0.3040 
    121 H121       31.0735   -1.1165  -11.3795 H         1 UNK         0.0766 
    122 H122       31.9824   -2.2967   -9.3849 H         1 UNK         0.0812 
    123 H123       30.2975   -2.7381   -9.6091 H         1 UNK         0.0812 
    124 H124       30.7476   -1.5827   -8.3602 H         1 UNK         0.0812 
    125 H125       33.3110   -0.6117  -10.7177 H         1 UNK         0.3205 
    126 H126       33.7087    2.2195  -10.1854 H         1 UNK         0.0754 
    127 H127       36.0655    1.6917  -10.7456 H         1 UNK         0.0769 
    128 H128       34.9840    1.0277  -11.9559 H         1 UNK         0.0769 
    129 H129       35.7104   -0.0308  -10.7459 H         1 UNK         0.0769 
    130 H130       32.5313    1.3978   -7.9548 H         1 UNK         0.2981 
    131 H131       34.4350    0.6812   -5.8575 H         1 UNK         0.0541 
    132 H132       34.4350    4.7074   -6.0780 H         1 UNK         0.3459 
    133 H133       33.8062    3.7299   -7.3810 H         1 UNK         0.3459 
    134 H134       31.4919    1.4958   -5.7336 H         1 UNK         0.0612 
    135 H135       32.4429    1.0896   -4.3278 H         1 UNK         0.0612 
    136 H136       31.8362   -0.9726   -3.2598 H         1 UNK         0.0624 
    137 H137       30.2847   -0.6099   -3.9691 H         1 UNK         0.0624 
@<TRIPOS>BOND
     1    1    2 1    
     2    1   72 1    
     3    1   73 1    
     4    1   74 1    
     5    2    3 2    
     6    2    4 am   BACKBONE|DICT|INTERRES
     7    4    5 1    
     8    4   75 1    
     9    5    6 1    
    10    5   35 1    
    11    5   76 1    
    12    6    7 1    
    13    6   77 1    
    14    6   78 1    
    15    7    8 1    
    16    8    9 1    
    17    8   79 1    
    18    8   80 1    
    19    9   10 ar   
    20    9   14 ar   
    21   10   11 ar   
    22   10   81 1    
    23   11   12 ar   
    24   11   71 1    
    25   12   13 ar   
    26   12   82 1    
    27   13   14 ar   
    28   13   15 1    
    29   14   83 1    
    30   15   16 1    
    31   15   84 1    
    32   15   85 1    
    33   16   17 1    
    34   17   18 1    
    35   17   86 1    
    36   17   87 1    
    37   18   19 1    
    38   18   37 1    
    39   18   88 1    
    40   19   20 am   BACKBONE|DICT|INTERRES
    41   19   89 1    
    42   20   21 2    
    43   20   22 1    
    44   22   23 1    
    45   22   24 1    
    46   22   90 1    
    47   23   91 1    
    48   23   92 1    
    49   23   93 1    
    50   24   25 am   BACKBONE|DICT|INTERRES
    51   24   94 1    
    52   25   26 2    
    53   25   27 1    
    54   27   28 1    
    55   27   29 1    
    56   27   95 1    
    57   28   96 1    
    58   28   97 1    
    59   28   98 1    
    60   29   30 am   BACKBONE|DICT|INTERRES
    61   29   99 1    
    62   30   31 2    
    63   30   32 1    
    64   32   33 1    
    65   32   34 1    
    66   32  100 1    
    67   33  101 1    
    68   33  102 1    
    69   33  103 1    
    70   34   35 am   BACKBONE|DICT|INTERRES
    71   34  104 1    
    72   35   36 2    
    73   37   38 2    
    74   37   39 am   BACKBONE|DICT|INTERRES
    75   39   40 1    
    76   39  105 1    
    77   40   41 1    
    78   40   42 1    
    79   40  106 1    
    80   41  107 1    
    81   41  108 1    
    82   41  109 1    
    83   42   43 2    
    84   42   44 am   BACKBONE|DICT|INTERRES
    85   44   45 1    
    86   44  110 1    
    87   45   46 1    
    88   45   47 1    
    89   45  111 1    
    90   46  112 1    
    91   46  113 1    
    92   46  114 1    
    93   47   48 2    
    94   47   49 am   BACKBONE|DICT|INTERRES
    95   49   50 1    
    96   49  115 1    
    97   50   51 1    
    98   50   52 1    
    99   50  116 1    
   100   51  117 1    
   101   51  118 1    
   102   51  119 1    
   103   52   53 2    
   104   52   54 am   BACKBONE|DICT|INTERRES
   105   54   55 1    
   106   54  120 1    
   107   55   56 1    
   108   55   57 1    
   109   55  121 1    
   110   56  122 1    
   111   56  123 1    
   112   56  124 1    
   113   57   58 2    
   114   57   59 am   BACKBONE|DICT|INTERRES
   115   59   60 1    
   116   59  125 1    
   117   60   61 1    
   118   60   62 1    
   119   60  126 1    
   120   61  127 1    
   121   61  128 1    
   122   61  129 1    
   123   62   63 2    
   124   62   64 am   BACKBONE|DICT|INTERRES
   125   64   65 1    
   126   64  130 1    
   127   65   66 1    
   128   65   69 1    
   129   65  131 1    
   130   66   67 am   BACKBONE|DICT|INTERRES
   131   66   68 2    
   132   67  132 1    
   133   67  133 1    
   134   69   70 1    
   135   69  134 1    
   136   69  135 1    
   137   70   71 1    
   138   71  136 1    
   139   71  137 1    
@<TRIPOS>SUBSTRUCTURE
     1 UNK         1 GROUP             0       ****    0 ROOT    
