@<TRIPOS>MOLECULE
3R137
137   139    1
SMALL
USER_CHARGES


@<TRIPOS>ATOM
      1 CA         25.5466   -6.4442   -0.5020 C.3       0 UNK        -0.2020 
      2 C          25.3859   -5.1190    0.2273 C.2       0 UNK         0.4855 
      3 O          24.4716   -4.9724    1.0387 O.2       0 UNK        -0.5197 
      4 N          26.2674   -4.1515   -0.0554 N.am      1 UNK        -0.4892 
      5 CA         26.2496   -2.8008    0.5235 C.3       1 UNK         0.0835 
      6 C6         27.6418   -2.1248    0.4356 C.3       12 UNK        -0.0855 
      7 S7         28.3323   -2.0402   -1.2568 S.3       12 UNK        -0.2931 
      8 C8         29.9104   -2.9195   -1.0549 C.3       12 UNK         0.0378 
      9 C9         30.8231   -2.7251   -2.2585 C.ar      12 UNK        -0.0802 
     10 C10        31.7378   -1.6666   -2.2778 C.ar      12 UNK        -0.0944 
     11 C11        32.6355   -1.5177   -3.3401 C.ar      12 UNK        -0.0787 
     12 C12        32.6128   -2.4450   -4.3854 C.ar      12 UNK        -0.0862 
     13 C13        31.6757   -3.4809   -4.4033 C.ar      12 UNK        -0.0733 
     14 C14        30.7834   -3.6191   -3.3340 C.ar      12 UNK        -0.0832 
     15 C15        31.6575   -4.4634   -5.5676 C.3       12 UNK         0.0240 
     16 S16        31.1097   -3.6858   -7.1233 S.3       12 UNK        -0.2522 
     17 C17        29.3319   -3.4547   -6.7967 C.3       12 UNK        -0.0967 
     18 CA         28.7059   -2.2936   -7.6187 C.3       5 UNK         0.0660 
     19 N          27.2451   -2.3581   -7.7054 N.am      5 UNK        -0.4015 
     20 C          26.3895   -2.3723   -6.6764 C.2       4 UNK         0.4946 
     21 O          26.7295   -2.4700   -5.4953 O.2       4 UNK        -0.5353 
     22 CA         24.8996   -2.2199   -7.0231 C.3       4 UNK         0.0277 
     23 CB         24.1688   -3.5642   -6.8776 C.3       4 UNK        -0.1981 
     24 N          24.2589   -1.2237   -6.1631 N.am      4 UNK        -0.4209 
     25 C          24.6379    0.0584   -6.0446 C.2       3 UNK         0.4942 
     26 O          25.5146    0.5797   -6.7369 O.2       3 UNK        -0.5208 
     27 CA         23.9340    0.8972   -4.9607 C.3       3 UNK         0.0250 
     28 CB         22.7592    1.6800   -5.5683 C.3       3 UNK        -0.1990 
     29 N          23.4548    0.0865   -3.8338 N.am      3 UNK        -0.4232 
     30 C          24.2633   -0.5348   -2.9621 C.2       2 UNK         0.4993 
     31 O          25.4835   -0.3670   -2.9404 O.2       2 UNK        -0.5286 
     32 CA         23.5951   -1.5199   -1.9831 C.3       2 UNK         0.0209 
     33 CB         22.7035   -2.5392   -2.7206 C.3       2 UNK        -0.1931 
     34 N          24.6020   -2.2677   -1.2291 N.am      2 UNK        -0.4546 
     35 C          25.1313   -1.9013   -0.0551 C.2       1 UNK         0.5154 
     36 O          24.7623   -0.9107    0.5794 O.2       1 UNK        -0.5181 
     37 C          29.1739   -0.8954   -7.1602 C.2       5 UNK         0.5014 
     38 O          29.7410   -0.1579   -7.9685 O.2       5 UNK        -0.5248 
     39 N          28.9194   -0.5500   -5.8915 N.am      6 UNK        -0.4434 
     40 CA         29.4664    0.6218   -5.2025 C.3       6 UNK         0.0363 
     41 CB         29.0095    0.6229   -3.7395 C.3       6 UNK        -0.1936 
     42 C          29.1677    1.9781   -5.8582 C.2       6 UNK         0.5081 
     43 O          30.0614    2.8228   -5.9052 O.2       6 UNK        -0.5248 
     44 N          27.9405    2.1641   -6.3581 N.am      7 UNK        -0.4718 
     45 CA         27.5319    3.3653   -7.0893 C.3       7 UNK         0.0273 
     46 CB         26.2292    3.9229   -6.4920 C.3       7 UNK        -0.1935 
     47 C          27.3606    3.0592   -8.5815 C.2       7 UNK         0.5018 
     48 O          27.7962    3.8578   -9.4101 O.2       7 UNK        -0.5186 
     49 N          26.7435    1.9111   -8.8983 N.am      8 UNK        -0.4240 
     50 CA         26.3950    1.4898  -10.2579 C.3       8 UNK         0.0235 
     51 CB         25.5280    0.2230  -10.1940 C.3       8 UNK        -0.2000 
     52 C          27.6020    1.2711  -11.1859 C.2       8 UNK         0.4941 
     53 O          27.5206    1.6331  -12.3604 O.2       8 UNK        -0.5273 
     54 N          28.6880    0.6937  -10.6534 N.am      9 UNK        -0.4262 
     55 CA         29.9407    0.4596  -11.3812 C.3       9 UNK         0.0264 
     56 CB         30.3244   -1.0254  -11.2498 C.3       9 UNK        -0.1955 
     57 C          31.0845    1.3572  -10.8760 C.2       9 UNK         0.5031 
     58 O          32.1570    1.3429  -11.4814 O.2       9 UNK        -0.5390 
     59 N          30.8451    2.1057   -9.7867 N.am      10 UNK        -0.4204 
     60 CA         31.8157    2.8771   -9.0018 C.3       10 UNK         0.0237 
     61 CB         32.3976    4.0502   -9.8205 C.3       10 UNK        -0.1985 
     62 C          32.8920    1.9656   -8.3775 C.2       10 UNK         0.4970 
     63 O          34.0843    2.2614   -8.4803 O.2       10 UNK        -0.4914 
     64 N          32.4377    0.8642   -7.7629 N.am      11 UNK        -0.4285 
     65 CA         33.2499   -0.2371   -7.2246 C.3       11 UNK         0.1007 
     66 C          33.9401   -1.0640   -8.3538 C.2       11 UNK         0.5703 
     67 N          35.0525   -1.7362   -8.0834 N.am      11 UNK        -0.7361 
     68 O          33.4424   -1.1556   -9.4735 O.2       11 UNK        -0.4986 
     69 C69        34.2019    0.1924   -6.0632 C.3       12 UNK        -0.0947 
     70 S70        33.3238    0.8736   -4.6143 S.3       12 UNK        -0.2240 
     71 C71        33.6527   -0.3820   -3.3311 C.3       12 UNK         0.0194 
     72 H72        26.3964   -6.4348   -1.1844 H         1 UNK         0.0906 
     73 H73        25.6971   -7.2509    0.2150 H         1 UNK         0.0906 
     74 H74        24.6498   -6.6652   -1.0802 H         1 UNK         0.0906 
     75 H75        26.9984   -4.3155   -0.7339 H         1 UNK         0.3140 
     76 H76        26.0157   -2.9059    1.5857 H         1 UNK         0.1085 
     77 H77        27.6035   -1.1122    0.8423 H         1 UNK         0.0836 
     78 H78        28.3365   -2.6650    1.0805 H         1 UNK         0.0836 
     79 H79        29.7161   -3.9809   -0.8939 H         1 UNK         0.0731 
     80 H80        30.4134   -2.5599   -0.1557 H         1 UNK         0.0731 
     81 H81        31.7609   -0.9680   -1.4524 H         1 UNK         0.1312 
     82 H82        33.3215   -2.3638   -5.1953 H         1 UNK         0.1406 
     83 H83        30.0688   -4.4311   -3.3282 H         1 UNK         0.1631 
     84 H84        31.0184   -5.3203   -5.3484 H         1 UNK         0.0717 
     85 H85        32.6628   -4.8618   -5.7111 H         1 UNK         0.0717 
     86 H86        28.8349   -4.3930   -7.0476 H         1 UNK         0.0934 
     87 H87        29.1712   -3.3131   -5.7274 H         1 UNK         0.0934 
     88 H88        29.0470   -2.4109   -8.6484 H         1 UNK         0.0739 
     89 H89        26.8692   -2.2991   -8.6403 H         1 UNK         0.3093 
     90 H90        24.7991   -1.8780   -8.0545 H         1 UNK         0.0818 
     91 H91        23.1160   -3.4771   -7.1471 H         1 UNK         0.0819 
     92 H92        24.6076   -4.3197   -7.5308 H         1 UNK         0.0819 
     93 H93        24.2249   -3.9454   -5.8569 H         1 UNK         0.0819 
     94 H94        23.5467   -1.5635   -5.5362 H         1 UNK         0.3041 
     95 H95        24.6641    1.6148   -4.5796 H         1 UNK         0.0784 
     96 H96        23.0904    2.2966   -6.4051 H         1 UNK         0.0793 
     97 H97        21.9801    1.0155   -5.9440 H         1 UNK         0.0793 
     98 H98        22.3071    2.3486   -4.8354 H         1 UNK         0.0793 
     99 H99        22.4579   -0.0647   -3.7739 H         1 UNK         0.3024 
    100 H100       22.9764   -0.9401   -1.2942 H         1 UNK         0.1171 
    101 H101       21.8574   -2.0569   -3.2110 H         1 UNK         0.0786 
    102 H102       23.2603   -3.0862   -3.4827 H         1 UNK         0.0786 
    103 H103       22.2872   -3.2705   -2.0270 H         1 UNK         0.0786 
    104 H104       25.0176   -3.0603   -1.6955 H         1 UNK         0.2977 
    105 H105       28.3513   -1.1860   -5.3397 H         1 UNK         0.3127 
    106 H106       30.5496    0.5000   -5.2099 H         1 UNK         0.0770 
    107 H107       27.9224    0.6277   -3.6533 H         1 UNK         0.0814 
    108 H108       29.3885    1.4963   -3.2071 H         1 UNK         0.0814 
    109 H109       29.3861   -0.2556   -3.2203 H         1 UNK         0.0814 
    110 H110       27.2570    1.4159   -6.2923 H         1 UNK         0.2983 
    111 H111       28.2916    4.1455   -7.0032 H         1 UNK         0.0947 
    112 H112       25.9382    4.8474   -6.9924 H         1 UNK         0.0806 
    113 H113       26.3460    4.1508   -5.4325 H         1 UNK         0.0806 
    114 H114       25.3987    3.2254   -6.5942 H         1 UNK         0.0806 
    115 H115       26.3685    1.3469   -8.1376 H         1 UNK         0.3000 
    116 H116       25.7915    2.2883  -10.6952 H         1 UNK         0.0850 
    117 H117       25.1972   -0.0739  -11.1903 H         1 UNK         0.0810 
    118 H118       24.6341    0.3821   -9.5900 H         1 UNK         0.0810 
    119 H119       26.0770   -0.6160   -9.7697 H         1 UNK         0.0810 
    120 H120       28.6835    0.4201   -9.6769 H         1 UNK         0.3040 
    121 H121       29.8139    0.6784  -12.4434 H         1 UNK         0.0766 
    122 H122       30.5757   -1.2907  -10.2228 H         1 UNK         0.0812 
    123 H123       31.1995   -1.2546  -11.8592 H         1 UNK         0.0812 
    124 H124       29.5176   -1.6785  -11.5822 H         1 UNK         0.0812 
    125 H125       29.9195    2.0478   -9.3886 H         1 UNK         0.3205 
    126 H126       31.2610    3.3112   -8.1701 H         1 UNK         0.0754 
    127 H127       33.0180    4.6908   -9.1927 H         1 UNK         0.0769 
    128 H128       31.6057    4.6731  -10.2365 H         1 UNK         0.0769 
    129 H129       33.0214    3.7043  -10.6450 H         1 UNK         0.0769 
    130 H130       31.4411    0.6704   -7.8016 H         1 UNK         0.2981 
    131 H131       32.5152   -0.9237   -6.8068 H         1 UNK         0.0541 
    132 H132       35.4758   -2.2857   -8.8145 H         1 UNK         0.3459 
    133 H133       35.4863   -1.6924   -7.1758 H         1 UNK         0.3459 
    134 H134       34.9189    0.9383   -6.4068 H         1 UNK         0.0612 
    135 H135       34.8055   -0.6482   -5.7234 H         1 UNK         0.0612 
    136 H136       34.6604   -0.7844   -3.4406 H         1 UNK         0.0624 
    137 H137       33.6399    0.1218   -2.3635 H         1 UNK         0.0624 
@<TRIPOS>BOND
     1    1    2 1    
     2    1   72 1    
     3    1   73 1    
     4    1   74 1    
     5    2    3 2    
     6    2    4 am   BACKBONE|DICT|INTERRES
     7    4    5 1    
     8    4   75 1    
     9    5    6 1    
    10    5   35 1    
    11    5   76 1    
    12    6    7 1    
    13    6   77 1    
    14    6   78 1    
    15    7    8 1    
    16    8    9 1    
    17    8   79 1    
    18    8   80 1    
    19    9   10 ar   
    20    9   14 ar   
    21   10   11 ar   
    22   10   81 1    
    23   11   12 ar   
    24   11   71 1    
    25   12   13 ar   
    26   12   82 1    
    27   13   14 ar   
    28   13   15 1    
    29   14   83 1    
    30   15   16 1    
    31   15   84 1    
    32   15   85 1    
    33   16   17 1    
    34   17   18 1    
    35   17   86 1    
    36   17   87 1    
    37   18   19 1    
    38   18   37 1    
    39   18   88 1    
    40   19   20 am   BACKBONE|DICT|INTERRES
    41   19   89 1    
    42   20   21 2    
    43   20   22 1    
    44   22   23 1    
    45   22   24 1    
    46   22   90 1    
    47   23   91 1    
    48   23   92 1    
    49   23   93 1    
    50   24   25 am   BACKBONE|DICT|INTERRES
    51   24   94 1    
    52   25   26 2    
    53   25   27 1    
    54   27   28 1    
    55   27   29 1    
    56   27   95 1    
    57   28   96 1    
    58   28   97 1    
    59   28   98 1    
    60   29   30 am   BACKBONE|DICT|INTERRES
    61   29   99 1    
    62   30   31 2    
    63   30   32 1    
    64   32   33 1    
    65   32   34 1    
    66   32  100 1    
    67   33  101 1    
    68   33  102 1    
    69   33  103 1    
    70   34   35 am   BACKBONE|DICT|INTERRES
    71   34  104 1    
    72   35   36 2    
    73   37   38 2    
    74   37   39 am   BACKBONE|DICT|INTERRES
    75   39   40 1    
    76   39  105 1    
    77   40   41 1    
    78   40   42 1    
    79   40  106 1    
    80   41  107 1    
    81   41  108 1    
    82   41  109 1    
    83   42   43 2    
    84   42   44 am   BACKBONE|DICT|INTERRES
    85   44   45 1    
    86   44  110 1    
    87   45   46 1    
    88   45   47 1    
    89   45  111 1    
    90   46  112 1    
    91   46  113 1    
    92   46  114 1    
    93   47   48 2    
    94   47   49 am   BACKBONE|DICT|INTERRES
    95   49   50 1    
    96   49  115 1    
    97   50   51 1    
    98   50   52 1    
    99   50  116 1    
   100   51  117 1    
   101   51  118 1    
   102   51  119 1    
   103   52   53 2    
   104   52   54 am   BACKBONE|DICT|INTERRES
   105   54   55 1    
   106   54  120 1    
   107   55   56 1    
   108   55   57 1    
   109   55  121 1    
   110   56  122 1    
   111   56  123 1    
   112   56  124 1    
   113   57   58 2    
   114   57   59 am   BACKBONE|DICT|INTERRES
   115   59   60 1    
   116   59  125 1    
   117   60   61 1    
   118   60   62 1    
   119   60  126 1    
   120   61  127 1    
   121   61  128 1    
   122   61  129 1    
   123   62   63 2    
   124   62   64 am   BACKBONE|DICT|INTERRES
   125   64   65 1    
   126   64  130 1    
   127   65   66 1    
   128   65   69 1    
   129   65  131 1    
   130   66   67 am   BACKBONE|DICT|INTERRES
   131   66   68 2    
   132   67  132 1    
   133   67  133 1    
   134   69   70 1    
   135   69  134 1    
   136   69  135 1    
   137   70   71 1    
   138   71  136 1    
   139   71  137 1    
@<TRIPOS>SUBSTRUCTURE
     1 UNK         1 GROUP             0       ****    0 ROOT    
