@<TRIPOS>MOLECULE
3R137
137   139    1
SMALL
USER_CHARGES


@<TRIPOS>ATOM
      1 CA         26.5995   -1.7866    0.6846 C.3       0 UNK        -0.2020 
      2 C          26.7678   -0.5617   -0.2005 C.2       0 UNK         0.4855 
      3 O          25.8886    0.2997   -0.2356 O.2       0 UNK        -0.5197 
      4 N          27.8857   -0.4798   -0.9302 N.am      1 UNK        -0.4892 
      5 CA         28.1999    0.5773   -1.8958 C.3       1 UNK         0.0835 
      6 C6         29.6707    0.4964   -2.3825 C.3       12 UNK        -0.0855 
      7 S7         30.2254   -1.1840   -2.8471 S.3       12 UNK        -0.2931 
      8 C8         30.4540   -0.9644   -4.6349 C.3       12 UNK         0.0378 
      9 C9         30.7002   -2.2806   -5.3543 C.ar      12 UNK        -0.0802 
     10 C10        31.8343   -3.0432   -5.0656 C.ar      12 UNK        -0.0944 
     11 C11        32.1009   -4.2141   -5.7791 C.ar      12 UNK        -0.0787 
     12 C12        31.2248   -4.6175   -6.7914 C.ar      12 UNK        -0.0862 
     13 C13        30.0883   -3.8611   -7.0970 C.ar      12 UNK        -0.0733 
     14 C14        29.8245   -2.7022   -6.3578 C.ar      12 UNK        -0.0832 
     15 C15        29.2078   -4.2640   -8.2768 C.3       12 UNK         0.0240 
     16 S16        27.4741   -4.5872   -7.8196 S.3       12 UNK        -0.2522 
     17 C17        26.7093   -2.9529   -8.1020 C.3       12 UNK        -0.0967 
     18 CA         25.5687   -2.5877   -7.1125 C.3       5 UNK         0.0660 
     19 N          25.9104   -2.7322   -5.6972 N.am      5 UNK        -0.4015 
     20 C          25.5642   -3.7779   -4.9338 C.2       4 UNK         0.4946 
     21 O          25.0286   -4.8021   -5.3609 O.2       4 UNK        -0.5353 
     22 CA         25.7943   -3.6343   -3.4239 C.3       4 UNK         0.0277 
     23 CB         27.2930   -3.6021   -3.0777 C.3       4 UNK        -0.1981 
     24 N          25.1146   -2.4361   -2.9257 N.am      4 UNK        -0.4209 
     25 C          23.8012   -2.3887   -2.6426 C.2       3 UNK         0.4942 
     26 O          23.0651   -3.3755   -2.6796 O.2       3 UNK        -0.5208 
     27 CA         23.1823   -1.0345   -2.2475 C.3       3 UNK         0.0250 
     28 CB         22.8223   -1.0110   -0.7524 C.3       3 UNK        -0.1990 
     29 N          24.0512    0.1007   -2.5628 N.am      3 UNK        -0.4232 
     30 C          24.1063    0.6863   -3.7691 C.2       2 UNK         0.4993 
     31 O          23.3469    0.4012   -4.6946 O.2       2 UNK        -0.5286 
     32 CA         25.1883    1.7617   -3.9937 C.3       2 UNK         0.0209 
     33 CB         24.5786    3.1658   -3.8504 C.3       2 UNK        -0.1931 
     34 N          26.3437    1.6453   -3.0958 N.am      2 UNK        -0.4546 
     35 C          27.1686    0.5897   -3.0458 C.2       1 UNK         0.5154 
     36 O          27.0700   -0.3799   -3.8005 O.2       1 UNK        -0.5181 
     37 C          25.1604   -1.1238   -7.3102 C.2       5 UNK         0.5014 
     38 O          25.8537   -0.2401   -6.8012 O.2       5 UNK        -0.5248 
     39 N          24.0954   -0.8861   -8.0887 N.am      6 UNK        -0.4434 
     40 CA         23.5108    0.4377   -8.3512 C.3       6 UNK         0.0363 
     41 CB         22.2487    0.2678   -9.2127 C.3       6 UNK        -0.1936 
     42 C          24.4644    1.4638   -8.9953 C.2       6 UNK         0.5081 
     43 O          24.2195    2.6649   -8.8812 O.2       6 UNK        -0.5248 
     44 N          25.5343    0.9829   -9.6446 N.am      7 UNK        -0.4718 
     45 CA         26.6226    1.7980  -10.1887 C.3       7 UNK         0.0273 
     46 CB         27.5286    0.9118  -11.0592 C.3       7 UNK        -0.1935 
     47 C          27.4587    2.5112   -9.1091 C.2       7 UNK         0.5018 
     48 O          28.0260    3.5639   -9.4042 O.2       7 UNK        -0.5186 
     49 N          27.5294    1.9297   -7.8992 N.am      8 UNK        -0.4240 
     50 CA         28.2248    2.3828   -6.6838 C.3       8 UNK         0.0235 
     51 CB         27.6279    3.7073   -6.1724 C.3       8 UNK        -0.2000 
     52 C          29.7593    2.4844   -6.7892 C.2       8 UNK         0.4941 
     53 O          30.4561    2.0175   -5.8891 O.2       8 UNK        -0.5273 
     54 N          30.2659    3.0996   -7.8614 N.am      9 UNK        -0.4262 
     55 CA         31.6843    3.2944   -8.1468 C.3       9 UNK         0.0264 
     56 CB         31.8440    4.5519   -9.0214 C.3       9 UNK        -0.1955 
     57 C          32.2728    2.0402   -8.8128 C.2       9 UNK         0.5031 
     58 O          32.4084    1.9993  -10.0378 O.2       9 UNK        -0.5390 
     59 N          32.5999    1.0359   -7.9957 N.am      10 UNK        -0.4204 
     60 CA         33.2513   -0.2072   -8.3995 C.3       10 UNK         0.0237 
     61 CB         32.1945   -1.2344   -8.8397 C.3       10 UNK        -0.1985 
     62 C          34.0985   -0.7270   -7.2321 C.2       10 UNK         0.4970 
     63 O          33.8350   -0.3665   -6.0822 O.2       10 UNK        -0.4914 
     64 N          35.1074   -1.5449   -7.5603 N.am      11 UNK        -0.4285 
     65 CA         36.0901   -2.1358   -6.6305 C.3       11 UNK         0.1007 
     66 C          37.0021   -1.1029   -5.8955 C.2       11 UNK         0.5703 
     67 N          37.1440    0.1213   -6.3907 N.am      11 UNK        -0.7361 
     68 O          37.6230   -1.4195   -4.8830 O.2       11 UNK        -0.4986 
     69 C69        35.4639   -3.1861   -5.6674 C.3       12 UNK        -0.0947 
     70 S70        34.7308   -4.6018   -6.5554 S.3       12 UNK        -0.2240 
     71 C71        33.3384   -5.0416   -5.4695 C.3       12 UNK         0.0194 
     72 H72        25.8313   -2.4424    0.2759 H         1 UNK         0.0906 
     73 H73        27.5244   -2.3571    0.7676 H         1 UNK         0.0906 
     74 H74        26.2963   -1.4874    1.6875 H         1 UNK         0.0906 
     75 H75        28.5639   -1.2290   -0.9005 H         1 UNK         0.3140 
     76 H76        28.1017    1.5250   -1.3614 H         1 UNK         0.1085 
     77 H77        30.3264    0.8313   -1.5772 H         1 UNK         0.0836 
     78 H78        29.8478    1.1965   -3.2018 H         1 UNK         0.0836 
     79 H79        31.3027   -0.3014   -4.8079 H         1 UNK         0.0731 
     80 H80        29.5761   -0.4633   -5.0457 H         1 UNK         0.0731 
     81 H81        32.5139   -2.7117   -4.2929 H         1 UNK         0.1312 
     82 H82        31.4465   -5.5113   -7.3585 H         1 UNK         0.1406 
     83 H83        28.9601   -2.0977   -6.5804 H         1 UNK         0.1631 
     84 H84        29.5977   -5.1698   -8.7434 H         1 UNK         0.0717 
     85 H85        29.2567   -3.4920   -9.0459 H         1 UNK         0.0717 
     86 H86        27.4811   -2.1838   -8.1058 H         1 UNK         0.0934 
     87 H87        26.3161   -2.9586   -9.1204 H         1 UNK         0.0934 
     88 H88        24.7019   -3.2141   -7.3351 H         1 UNK         0.0739 
     89 H89        26.2987   -1.8987   -5.2650 H         1 UNK         0.3093 
     90 H90        25.3672   -4.5108   -2.9313 H         1 UNK         0.0818 
     91 H91        27.7719   -4.5413   -3.3570 H         1 UNK         0.0819 
     92 H92        27.8240   -2.8102   -3.6041 H         1 UNK         0.0819 
     93 H93        27.4534   -3.4613   -2.0092 H         1 UNK         0.0819 
     94 H94        25.6497   -1.5754   -2.9500 H         1 UNK         0.3041 
     95 H95        22.2506   -0.9323   -2.8084 H         1 UNK         0.0784 
     96 H96        22.0992   -1.7925   -0.5152 H         1 UNK         0.0793 
     97 H97        23.6925   -1.1755   -0.1184 H         1 UNK         0.0793 
     98 H98        22.3741   -0.0592   -0.4666 H         1 UNK         0.0793 
     99 H99        24.7000    0.3909   -1.8360 H         1 UNK         0.3024 
    100 H100       25.5490    1.6412   -5.0170 H         1 UNK         0.1171 
    101 H101       25.3147    3.9461   -4.0422 H         1 UNK         0.0786 
    102 H102       23.7634    3.3091   -4.5613 H         1 UNK         0.0786 
    103 H103       24.1721    3.3283   -2.8513 H         1 UNK         0.0786 
    104 H104       26.4539    2.3811   -2.4124 H         1 UNK         0.2977 
    105 H105       23.6035   -1.6731   -8.4878 H         1 UNK         0.3127 
    106 H106       23.2109    0.8529   -7.3869 H         1 UNK         0.0770 
    107 H107       22.4784   -0.1771  -10.1817 H         1 UNK         0.0814 
    108 H108       21.7719    1.2308   -9.4017 H         1 UNK         0.0814 
    109 H109       21.5103   -0.3628   -8.7172 H         1 UNK         0.0814 
    110 H110       25.6384   -0.0188   -9.7054 H         1 UNK         0.2983 
    111 H111       26.1812    2.5704  -10.8225 H         1 UNK         0.0947 
    112 H112       28.3377    1.4962  -11.5004 H         1 UNK         0.0806 
    113 H113       26.9726    0.4610  -11.8814 H         1 UNK         0.0806 
    114 H114       27.9867    0.1084  -10.4808 H         1 UNK         0.0806 
    115 H115       26.9908    1.0781   -7.7652 H         1 UNK         0.3000 
    116 H116       28.0143    1.6171   -5.9349 H         1 UNK         0.0850 
    117 H117       28.0072    3.9468   -5.1782 H         1 UNK         0.0810 
    118 H118       26.5422    3.6521   -6.1060 H         1 UNK         0.0810 
    119 H119       27.8747    4.5443   -6.8265 H         1 UNK         0.0810 
    120 H120       29.6018    3.4227   -8.5634 H         1 UNK         0.3040 
    121 H121       32.2222    3.4687   -7.2122 H         1 UNK         0.0766 
    122 H122       31.4864    5.4417   -8.5031 H         1 UNK         0.0812 
    123 H123       31.2917    4.4674   -9.9584 H         1 UNK         0.0812 
    124 H124       32.8916    4.7220   -9.2729 H         1 UNK         0.0812 
    125 H125       32.4593    1.1361   -6.9956 H         1 UNK         0.3205 
    126 H126       33.9250   -0.0045   -9.2351 H         1 UNK         0.0754 
    127 H127       31.6827   -0.9118   -9.7465 H         1 UNK         0.0769 
    128 H128       31.4414   -1.3763   -8.0677 H         1 UNK         0.0769 
    129 H129       32.6419   -2.2078   -9.0453 H         1 UNK         0.0769 
    130 H130       35.2445   -1.7783   -8.5329 H         1 UNK         0.2981 
    131 H131       36.7877   -2.6780   -7.2697 H         1 UNK         0.0541 
    132 H132       36.6576    0.3958   -7.2284 H         1 UNK         0.3459 
    133 H133       37.7443    0.7773   -5.9164 H         1 UNK         0.3459 
    134 H134       36.2199   -3.5988   -4.9975 H         1 UNK         0.0612 
    135 H135       34.7189   -2.7151   -5.0269 H         1 UNK         0.0612 
    136 H136       33.6307   -4.9262   -4.4246 H         1 UNK         0.0624 
    137 H137       33.1119   -6.1001   -5.6054 H         1 UNK         0.0624 
@<TRIPOS>BOND
     1    1    2 1    
     2    1   72 1    
     3    1   73 1    
     4    1   74 1    
     5    2    3 2    
     6    2    4 am   BACKBONE|DICT|INTERRES
     7    4    5 1    
     8    4   75 1    
     9    5    6 1    
    10    5   35 1    
    11    5   76 1    
    12    6    7 1    
    13    6   77 1    
    14    6   78 1    
    15    7    8 1    
    16    8    9 1    
    17    8   79 1    
    18    8   80 1    
    19    9   10 ar   
    20    9   14 ar   
    21   10   11 ar   
    22   10   81 1    
    23   11   12 ar   
    24   11   71 1    
    25   12   13 ar   
    26   12   82 1    
    27   13   14 ar   
    28   13   15 1    
    29   14   83 1    
    30   15   16 1    
    31   15   84 1    
    32   15   85 1    
    33   16   17 1    
    34   17   18 1    
    35   17   86 1    
    36   17   87 1    
    37   18   19 1    
    38   18   37 1    
    39   18   88 1    
    40   19   20 am   BACKBONE|DICT|INTERRES
    41   19   89 1    
    42   20   21 2    
    43   20   22 1    
    44   22   23 1    
    45   22   24 1    
    46   22   90 1    
    47   23   91 1    
    48   23   92 1    
    49   23   93 1    
    50   24   25 am   BACKBONE|DICT|INTERRES
    51   24   94 1    
    52   25   26 2    
    53   25   27 1    
    54   27   28 1    
    55   27   29 1    
    56   27   95 1    
    57   28   96 1    
    58   28   97 1    
    59   28   98 1    
    60   29   30 am   BACKBONE|DICT|INTERRES
    61   29   99 1    
    62   30   31 2    
    63   30   32 1    
    64   32   33 1    
    65   32   34 1    
    66   32  100 1    
    67   33  101 1    
    68   33  102 1    
    69   33  103 1    
    70   34   35 am   BACKBONE|DICT|INTERRES
    71   34  104 1    
    72   35   36 2    
    73   37   38 2    
    74   37   39 am   BACKBONE|DICT|INTERRES
    75   39   40 1    
    76   39  105 1    
    77   40   41 1    
    78   40   42 1    
    79   40  106 1    
    80   41  107 1    
    81   41  108 1    
    82   41  109 1    
    83   42   43 2    
    84   42   44 am   BACKBONE|DICT|INTERRES
    85   44   45 1    
    86   44  110 1    
    87   45   46 1    
    88   45   47 1    
    89   45  111 1    
    90   46  112 1    
    91   46  113 1    
    92   46  114 1    
    93   47   48 2    
    94   47   49 am   BACKBONE|DICT|INTERRES
    95   49   50 1    
    96   49  115 1    
    97   50   51 1    
    98   50   52 1    
    99   50  116 1    
   100   51  117 1    
   101   51  118 1    
   102   51  119 1    
   103   52   53 2    
   104   52   54 am   BACKBONE|DICT|INTERRES
   105   54   55 1    
   106   54  120 1    
   107   55   56 1    
   108   55   57 1    
   109   55  121 1    
   110   56  122 1    
   111   56  123 1    
   112   56  124 1    
   113   57   58 2    
   114   57   59 am   BACKBONE|DICT|INTERRES
   115   59   60 1    
   116   59  125 1    
   117   60   61 1    
   118   60   62 1    
   119   60  126 1    
   120   61  127 1    
   121   61  128 1    
   122   61  129 1    
   123   62   63 2    
   124   62   64 am   BACKBONE|DICT|INTERRES
   125   64   65 1    
   126   64  130 1    
   127   65   66 1    
   128   65   69 1    
   129   65  131 1    
   130   66   67 am   BACKBONE|DICT|INTERRES
   131   66   68 2    
   132   67  132 1    
   133   67  133 1    
   134   69   70 1    
   135   69  134 1    
   136   69  135 1    
   137   70   71 1    
   138   71  136 1    
   139   71  137 1    
@<TRIPOS>SUBSTRUCTURE
     1 UNK         1 GROUP             0       ****    0 ROOT    
