@<TRIPOS>MOLECULE
3R137
137   139    1
SMALL
USER_CHARGES


@<TRIPOS>ATOM
      1 CA         32.8111    0.1006    0.2347 C.3       0 UNK        -0.2020 
      2 C          31.7231   -0.6511   -0.5172 C.2       0 UNK         0.4855 
      3 O          32.0236   -1.6021   -1.2372 O.2       0 UNK        -0.5197 
      4 N          30.4640   -0.2352   -0.3500 N.am      1 UNK        -0.4892 
      5 CA         29.2796   -0.7820   -1.0099 C.3       1 UNK         0.0835 
      6 C6         28.8956   -2.2046   -0.5075 C.3       12 UNK        -0.0855 
      7 S7         27.8474   -3.1313   -1.6921 S.3       12 UNK        -0.2931 
      8 C8         28.8791   -4.5670   -2.1247 C.3       12 UNK         0.0378 
      9 C9         29.4350   -4.4835   -3.5402 C.ar      12 UNK        -0.0802 
     10 C10        30.6192   -3.7852   -3.7973 C.ar      12 UNK        -0.0944 
     11 C11        31.1980   -3.8144   -5.0704 C.ar      12 UNK        -0.0787 
     12 C12        30.5704   -4.5315   -6.0956 C.ar      12 UNK        -0.0862 
     13 C13        29.3830   -5.2306   -5.8535 C.ar      12 UNK        -0.0733 
     14 C14        28.8126   -5.1877   -4.5769 C.ar      12 UNK        -0.0832 
     15 C15        28.7815   -6.1276   -6.9320 C.3       12 UNK         0.0240 
     16 S16        28.1242   -5.2183   -8.3658 S.3       12 UNK        -0.2522 
     17 C17        26.6101   -4.4674   -7.6760 C.3       12 UNK        -0.0967 
     18 CA         26.3301   -3.0506   -8.2379 C.3       5 UNK         0.0660 
     19 N          25.0160   -2.5542   -7.8176 N.am      5 UNK        -0.4015 
     20 C          24.4496   -1.4137   -8.2413 C.2       4 UNK         0.4946 
     21 O          24.9340   -0.6820   -9.1048 O.2       4 UNK        -0.5353 
     22 CA         23.1445   -0.9890   -7.5433 C.3       4 UNK         0.0277 
     23 CB         21.9299   -1.6347   -8.2290 C.3       4 UNK        -0.1981 
     24 N          23.1186   -1.2860   -6.1044 N.am      4 UNK        -0.4209 
     25 C          23.9978   -0.8066   -5.2136 C.2       3 UNK         0.4942 
     26 O          24.9398   -0.0678   -5.5108 O.2       3 UNK        -0.5208 
     27 CA         23.8303   -1.2633   -3.7605 C.3       3 UNK         0.0250 
     28 CB         24.2185   -2.7469   -3.6007 C.3       3 UNK        -0.1990 
     29 N          24.6953   -0.4400   -2.9208 N.am      3 UNK        -0.4232 
     30 C          24.5474   -0.2175   -1.6119 C.2       2 UNK         0.4993 
     31 O          23.6233   -0.6769   -0.9381 O.2       2 UNK        -0.5286 
     32 CA         25.6652    0.5967   -0.9453 C.3       2 UNK         0.0209 
     33 CB         25.3613    0.9419    0.5287 C.3       2 UNK        -0.1931 
     34 N          26.8965   -0.1839   -1.0473 N.am      2 UNK        -0.4546 
     35 C          28.1454    0.2604   -0.8797 C.2       1 UNK         0.5154 
     36 O          28.4200    1.4357   -0.6205 O.2       1 UNK        -0.5181 
     37 C          27.4449   -2.0537   -7.8671 C.2       5 UNK         0.5014 
     38 O          28.2172   -1.6517   -8.7371 O.2       5 UNK        -0.5248 
     39 N          27.4717   -1.6437   -6.5921 N.am      6 UNK        -0.4434 
     40 CA         28.4292   -0.6828   -6.0518 C.3       6 UNK         0.0363 
     41 CB         28.2656   -0.5982   -4.5310 C.3       6 UNK        -0.1936 
     42 C          28.3146    0.7080   -6.6872 C.2       6 UNK         0.5081 
     43 O          29.3417    1.3389   -6.9265 O.2       6 UNK        -0.5248 
     44 N          27.0833    1.1500   -6.9720 N.am      7 UNK        -0.4718 
     45 CA         26.7967    2.3939   -7.6865 C.3       7 UNK         0.0273 
     46 CB         25.2886    2.6845   -7.6338 C.3       7 UNK        -0.1935 
     47 C          27.3035    2.3684   -9.1384 C.2       7 UNK         0.5018 
     48 O          27.9108    3.3448   -9.5786 O.2       7 UNK        -0.5186 
     49 N          27.0694    1.2524   -9.8446 N.am      8 UNK        -0.4240 
     50 CA         27.5249    1.0327  -11.2195 C.3       8 UNK         0.0235 
     51 CB         26.8159   -0.1972  -11.8097 C.3       8 UNK        -0.2000 
     52 C          29.0517    0.8858  -11.3289 C.2       8 UNK         0.4941 
     53 O          29.6553    1.4954  -12.2125 O.2       8 UNK        -0.5273 
     54 N          29.6479    0.0863  -10.4343 N.am      9 UNK        -0.4262 
     55 CA         31.0878   -0.1856  -10.3896 C.3       9 UNK         0.0264 
     56 CB         31.3163   -1.5175   -9.6576 C.3       9 UNK        -0.1955 
     57 C          31.9207    0.9413   -9.7484 C.2       9 UNK         0.5031 
     58 O          33.1445    0.9218   -9.8891 O.2       9 UNK        -0.5390 
     59 N          31.2591    1.8866   -9.0641 N.am      10 UNK        -0.4204 
     60 CA         31.8233    3.0059   -8.2998 C.3       10 UNK         0.0237 
     61 CB         32.5815    3.9902   -9.2167 C.3       10 UNK        -0.1985 
     62 C          32.6510    2.5272   -7.0904 C.2       10 UNK         0.4970 
     63 O          33.7626    3.0110   -6.8663 O.2       10 UNK        -0.4914 
     64 N          32.0821    1.5825   -6.3320 N.am      11 UNK        -0.4285 
     65 CA         32.6667    1.0198   -5.1030 C.3       11 UNK         0.1007 
     66 C          32.5184    1.9421   -3.8595 C.2       11 UNK         0.5703 
     67 N          31.6593    2.9552   -3.8806 N.am      11 UNK        -0.7361 
     68 O          33.2068    1.7431   -2.8625 O.2       11 UNK        -0.4986 
     69 C69        32.1303   -0.4046   -4.7982 C.3       12 UNK        -0.0947 
     70 S70        32.4134   -1.5635   -6.1758 S.3       12 UNK        -0.2240 
     71 C71        32.5514   -3.1600   -5.3181 C.3       12 UNK         0.0194 
     72 H72        33.5785    0.4422   -0.4594 H         1 UNK         0.0906 
     73 H73        32.4180    0.9717    0.7585 H         1 UNK         0.0906 
     74 H74        33.2820   -0.5546    0.9669 H         1 UNK         0.0906 
     75 H75        30.2665    0.5962    0.1952 H         1 UNK         0.3140 
     76 H76        29.5301   -0.8475   -2.0682 H         1 UNK         0.1085 
     77 H77        29.7971   -2.7846   -0.3120 H         1 UNK         0.0836 
     78 H78        28.3831   -2.1515    0.4550 H         1 UNK         0.0836 
     79 H79        28.2667   -5.4641   -2.0211 H         1 UNK         0.0731 
     80 H80        29.6968   -4.6947   -1.4148 H         1 UNK         0.0731 
     81 H81        31.1135   -3.2572   -2.9938 H         1 UNK         0.1312 
     82 H82        31.0286   -4.5796   -7.0743 H         1 UNK         0.1406 
     83 H83        27.9109   -5.7494   -4.3732 H         1 UNK         0.1631 
     84 H84        27.9922   -6.7589   -6.5208 H         1 UNK         0.0717 
     85 H85        29.5556   -6.8102   -7.2854 H         1 UNK         0.0717 
     86 H86        25.7794   -5.1327   -7.9173 H         1 UNK         0.0934 
     87 H87        26.6706   -4.4463   -6.5864 H         1 UNK         0.0934 
     88 H88        26.3069   -3.1184   -9.3280 H         1 UNK         0.0739 
     89 H89        24.5310   -3.0911   -7.1146 H         1 UNK         0.3093 
     90 H90        23.0582    0.0941   -7.6522 H         1 UNK         0.0818 
     91 H91        20.9939   -1.2594   -7.8148 H         1 UNK         0.0819 
     92 H92        21.9210   -1.4105   -9.2968 H         1 UNK         0.0819 
     93 H93        21.9330   -2.7204   -8.1243 H         1 UNK         0.0819 
     94 H94        22.3728   -1.8846   -5.7783 H         1 UNK         0.3041 
     95 H95        22.7886   -1.1133   -3.4689 H         1 UNK         0.0784 
     96 H96        23.5907   -3.3932   -4.2148 H         1 UNK         0.0793 
     97 H97        25.2561   -2.9256   -3.8867 H         1 UNK         0.0793 
     98 H98        24.1010   -3.0774   -2.5684 H         1 UNK         0.0793 
     99 H99        25.4317    0.0270   -3.4351 H         1 UNK         0.3024 
    100 H100       25.7810    1.5271   -1.5060 H         1 UNK         0.1171 
    101 H101       26.1351    1.5770    0.9597 H         1 UNK         0.0786 
    102 H102       24.4179    1.4823    0.6162 H         1 UNK         0.0786 
    103 H103       25.2840    0.0449    1.1443 H         1 UNK         0.0786 
    104 H104       26.7733   -1.1678   -1.2639 H         1 UNK         0.2977 
    105 H105       26.7671   -1.9838   -5.9567 H         1 UNK         0.3127 
    106 H106       29.4294   -1.0605   -6.2716 H         1 UNK         0.0770 
    107 H107       27.2412   -0.3731   -4.2420 H         1 UNK         0.0814 
    108 H108       28.8950    0.1866   -4.1106 H         1 UNK         0.0814 
    109 H109       28.5492   -1.5419   -4.0678 H         1 UNK         0.0814 
    110 H110       26.2867    0.5960   -6.6664 H         1 UNK         0.2983 
    111 H111       27.3179    3.2018   -7.1681 H         1 UNK         0.0947 
    112 H112       25.0575    3.6342   -8.1180 H         1 UNK         0.0806 
    113 H113       24.9329    2.7481   -6.6052 H         1 UNK         0.0806 
    114 H114       24.7101    1.9112   -8.1393 H         1 UNK         0.0806 
    115 H115       26.5262    0.5065   -9.4181 H         1 UNK         0.3000 
    116 H116       27.2345    1.9042  -11.8102 H         1 UNK         0.0850 
    117 H117       27.1330   -0.3767  -12.8379 H         1 UNK         0.0810 
    118 H118       25.7343   -0.0614  -11.8221 H         1 UNK         0.0810 
    119 H119       27.0300   -1.1008  -11.2374 H         1 UNK         0.0810 
    120 H120       29.0693   -0.4266   -9.7679 H         1 UNK         0.3040 
    121 H121       31.4479   -0.3023  -11.4139 H         1 UNK         0.0766 
    122 H122       30.9112   -1.4884   -8.6464 H         1 UNK         0.0812 
    123 H123       32.3786   -1.7524   -9.5798 H         1 UNK         0.0812 
    124 H124       30.8366   -2.3447  -10.1809 H         1 UNK         0.0812 
    125 H125       30.2603    1.7605   -8.9555 H         1 UNK         0.3205 
    126 H126       30.9687    3.5431   -7.8855 H         1 UNK         0.0754 
    127 H127       32.8802    4.8830   -8.6660 H         1 UNK         0.0769 
    128 H128       31.9570    4.3165  -10.0484 H         1 UNK         0.0769 
    129 H129       33.4878    3.5475   -9.6307 H         1 UNK         0.0769 
    130 H130       31.1363    1.2876   -6.5637 H         1 UNK         0.2981 
    131 H131       33.7412    0.9237   -5.2704 H         1 UNK         0.0541 
    132 H132       31.0902    3.1265   -4.6936 H         1 UNK         0.3459 
    133 H133       31.5791    3.5500   -3.0715 H         1 UNK         0.3459 
    134 H134       31.0652   -0.3805   -4.5786 H         1 UNK         0.0612 
    135 H135       32.6149   -0.8025   -3.9050 H         1 UNK         0.0612 
    136 H136       33.1590   -3.8251   -5.9334 H         1 UNK         0.0624 
    137 H137       33.1006   -3.0364   -4.3835 H         1 UNK         0.0624 
@<TRIPOS>BOND
     1    1    2 1    
     2    1   72 1    
     3    1   73 1    
     4    1   74 1    
     5    2    3 2    
     6    2    4 am   BACKBONE|DICT|INTERRES
     7    4    5 1    
     8    4   75 1    
     9    5    6 1    
    10    5   35 1    
    11    5   76 1    
    12    6    7 1    
    13    6   77 1    
    14    6   78 1    
    15    7    8 1    
    16    8    9 1    
    17    8   79 1    
    18    8   80 1    
    19    9   10 ar   
    20    9   14 ar   
    21   10   11 ar   
    22   10   81 1    
    23   11   12 ar   
    24   11   71 1    
    25   12   13 ar   
    26   12   82 1    
    27   13   14 ar   
    28   13   15 1    
    29   14   83 1    
    30   15   16 1    
    31   15   84 1    
    32   15   85 1    
    33   16   17 1    
    34   17   18 1    
    35   17   86 1    
    36   17   87 1    
    37   18   19 1    
    38   18   37 1    
    39   18   88 1    
    40   19   20 am   BACKBONE|DICT|INTERRES
    41   19   89 1    
    42   20   21 2    
    43   20   22 1    
    44   22   23 1    
    45   22   24 1    
    46   22   90 1    
    47   23   91 1    
    48   23   92 1    
    49   23   93 1    
    50   24   25 am   BACKBONE|DICT|INTERRES
    51   24   94 1    
    52   25   26 2    
    53   25   27 1    
    54   27   28 1    
    55   27   29 1    
    56   27   95 1    
    57   28   96 1    
    58   28   97 1    
    59   28   98 1    
    60   29   30 am   BACKBONE|DICT|INTERRES
    61   29   99 1    
    62   30   31 2    
    63   30   32 1    
    64   32   33 1    
    65   32   34 1    
    66   32  100 1    
    67   33  101 1    
    68   33  102 1    
    69   33  103 1    
    70   34   35 am   BACKBONE|DICT|INTERRES
    71   34  104 1    
    72   35   36 2    
    73   37   38 2    
    74   37   39 am   BACKBONE|DICT|INTERRES
    75   39   40 1    
    76   39  105 1    
    77   40   41 1    
    78   40   42 1    
    79   40  106 1    
    80   41  107 1    
    81   41  108 1    
    82   41  109 1    
    83   42   43 2    
    84   42   44 am   BACKBONE|DICT|INTERRES
    85   44   45 1    
    86   44  110 1    
    87   45   46 1    
    88   45   47 1    
    89   45  111 1    
    90   46  112 1    
    91   46  113 1    
    92   46  114 1    
    93   47   48 2    
    94   47   49 am   BACKBONE|DICT|INTERRES
    95   49   50 1    
    96   49  115 1    
    97   50   51 1    
    98   50   52 1    
    99   50  116 1    
   100   51  117 1    
   101   51  118 1    
   102   51  119 1    
   103   52   53 2    
   104   52   54 am   BACKBONE|DICT|INTERRES
   105   54   55 1    
   106   54  120 1    
   107   55   56 1    
   108   55   57 1    
   109   55  121 1    
   110   56  122 1    
   111   56  123 1    
   112   56  124 1    
   113   57   58 2    
   114   57   59 am   BACKBONE|DICT|INTERRES
   115   59   60 1    
   116   59  125 1    
   117   60   61 1    
   118   60   62 1    
   119   60  126 1    
   120   61  127 1    
   121   61  128 1    
   122   61  129 1    
   123   62   63 2    
   124   62   64 am   BACKBONE|DICT|INTERRES
   125   64   65 1    
   126   64  130 1    
   127   65   66 1    
   128   65   69 1    
   129   65  131 1    
   130   66   67 am   BACKBONE|DICT|INTERRES
   131   66   68 2    
   132   67  132 1    
   133   67  133 1    
   134   69   70 1    
   135   69  134 1    
   136   69  135 1    
   137   70   71 1    
   138   71  136 1    
   139   71  137 1    
@<TRIPOS>SUBSTRUCTURE
     1 UNK         1 GROUP             0       ****    0 ROOT    
