@<TRIPOS>MOLECULE
3R137
137   139    1
SMALL
USER_CHARGES


@<TRIPOS>ATOM
      1 CA         24.8291   -5.4905    0.8432 C.3       0 UNK        -0.2020 
      2 C          25.8836   -4.5759    0.2390 C.2       0 UNK         0.4855 
      3 O          25.7883   -4.2354   -0.9397 O.2       0 UNK        -0.5197 
      4 N          26.8711   -4.1617    1.0462 N.am      1 UNK        -0.4892 
      5 CA         28.0424   -3.3253    0.7189 C.3       1 UNK         0.0835 
      6 C6         28.9478   -3.9088   -0.3957 C.3       12 UNK        -0.0855 
      7 S7         29.5461   -5.5985   -0.0440 S.3       12 UNK        -0.2931 
      8 C8         31.0835   -5.6530   -1.0278 C.3       12 UNK         0.0378 
      9 C9         30.8826   -5.1288   -2.4446 C.ar      12 UNK        -0.0802 
     10 C10        31.5463   -3.9722   -2.8676 C.ar      12 UNK        -0.0944 
     11 C11        31.3239   -3.4531   -4.1465 C.ar      12 UNK        -0.0787 
     12 C12        30.4319   -4.0998   -5.0044 C.ar      12 UNK        -0.0862 
     13 C13        29.7516   -5.2476   -4.5874 C.ar      12 UNK        -0.0733 
     14 C14        29.9977   -5.7714   -3.3156 C.ar      12 UNK        -0.0832 
     15 C15        28.7143   -5.8915   -5.4941 C.3       12 UNK         0.0240 
     16 S16        27.0104   -5.6179   -4.8961 S.3       12 UNK        -0.2522 
     17 C17        26.9003   -3.7970   -4.7625 C.3       12 UNK        -0.0967 
     18 CA         26.1880   -3.1173   -5.9570 C.3       5 UNK         0.0660 
     19 N          25.7094   -1.7810   -5.5859 N.am      5 UNK        -0.4015 
     20 C          24.8993   -1.0230   -6.3421 C.2       4 UNK         0.4946 
     21 O          24.3799   -1.4231   -7.3843 O.2       4 UNK        -0.5353 
     22 CA         24.6371    0.4312   -5.9000 C.3       4 UNK         0.0277 
     23 CB         23.2164    0.5692   -5.3291 C.3       4 UNK        -0.1981 
     24 N          25.5943    0.9621   -4.9272 N.am      4 UNK        -0.4209 
     25 C          26.9175    1.0911   -5.1056 C.2       3 UNK         0.4942 
     26 O          27.4999    0.8096   -6.1526 O.2       3 UNK        -0.5208 
     27 CA         27.7316    1.5481   -3.8809 C.3       3 UNK         0.0250 
     28 CB         27.9140    3.0731   -3.8977 C.3       3 UNK        -0.1990 
     29 N          27.1552    1.1445   -2.5896 N.am      3 UNK        -0.4232 
     30 C          26.8762   -0.1161   -2.2268 C.2       2 UNK         0.4993 
     31 O          27.0405   -1.0934   -2.9618 O.2       2 UNK        -0.5286 
     32 CA         26.2254   -0.3039   -0.8494 C.3       2 UNK         0.0209 
     33 CB         24.6939   -0.2412   -0.9738 C.3       2 UNK        -0.1931 
     34 N          26.5985   -1.6042   -0.3003 N.am      2 UNK        -0.4546 
     35 C          27.7088   -1.8507    0.4010 C.2       1 UNK         0.5154 
     36 O          28.4688   -0.9647    0.7963 O.2       1 UNK        -0.5181 
     37 C          27.0723   -3.0904   -7.2284 C.2       5 UNK         0.5014 
     38 O          27.0667   -4.0619   -7.9859 O.2       5 UNK        -0.5248 
     39 N          27.7764   -1.9751   -7.4709 N.am      6 UNK        -0.4434 
     40 CA         28.5507   -1.7196   -8.6837 C.3       6 UNK         0.0363 
     41 CB         30.0524   -1.9047   -8.3932 C.3       6 UNK        -0.1936 
     42 C          28.2063   -0.3156   -9.1947 C.2       6 UNK         0.5081 
     43 O          29.1052    0.5062   -9.3789 O.2       6 UNK        -0.5248 
     44 N          26.9040   -0.0577   -9.3932 N.am      7 UNK        -0.4718 
     45 CA         26.3010    1.2513   -9.6920 C.3       7 UNK         0.0273 
     46 CB         24.7931    1.0688   -9.9345 C.3       7 UNK        -0.1935 
     47 C          26.9139    2.0323  -10.8689 C.2       7 UNK         0.5018 
     48 O          26.8765    3.2626  -10.8518 O.2       7 UNK        -0.5186 
     49 N          27.4705    1.3173  -11.8568 N.am      8 UNK        -0.4240 
     50 CA         28.1787    1.8919  -13.0046 C.3       8 UNK         0.0235 
     51 CB         28.4561    0.7858  -14.0356 C.3       8 UNK        -0.2000 
     52 C          29.4863    2.6107  -12.6209 C.2       8 UNK         0.4941 
     53 O          29.8584    3.5737  -13.2927 O.2       8 UNK        -0.5273 
     54 N          30.1501    2.1364  -11.5583 N.am      9 UNK        -0.4262 
     55 CA         31.3658    2.7276  -10.9945 C.3       9 UNK         0.0264 
     56 CB         32.3968    1.6099  -10.7621 C.3       9 UNK        -0.1955 
     57 C          31.0894    3.4667   -9.6743 C.2       9 UNK         0.5031 
     58 O          31.8319    4.3922   -9.3455 O.2       9 UNK        -0.5390 
     59 N          30.0518    3.0306   -8.9423 N.am      10 UNK        -0.4204 
     60 CA         29.7089    3.3785   -7.5596 C.3       10 UNK         0.0237 
     61 CB         29.3820    4.8806   -7.4117 C.3       10 UNK        -0.1985 
     62 C          30.7852    2.8730   -6.5784 C.2       10 UNK         0.4970 
     63 O          31.1724    3.5998   -5.6616 O.2       10 UNK        -0.4914 
     64 N          31.2612    1.6406   -6.8170 N.am      11 UNK        -0.4285 
     65 CA         32.4225    1.0163   -6.1619 C.3       11 UNK         0.1007 
     66 C          33.7296    1.8370   -6.3930 C.2       11 UNK         0.5703 
     67 N          34.5678    2.0504   -5.3862 N.am      11 UNK        -0.7361 
     68 O          34.0211    2.2353   -7.5184 O.2       11 UNK        -0.4986 
     69 C69        32.1496    0.6083   -4.6830 C.3       12 UNK        -0.0947 
     70 S70        30.9320   -0.7406   -4.5375 S.3       12 UNK        -0.2240 
     71 C71        32.0365   -2.1879   -4.5965 C.3       12 UNK         0.0194 
     72 H72        25.0285   -5.7091    1.8921 H         1 UNK         0.0906 
     73 H73        23.8456   -5.0263    0.7738 H         1 UNK         0.0906 
     74 H74        24.7991   -6.4349    0.3003 H         1 UNK         0.0906 
     75 H75        26.8489   -4.4677    2.0095 H         1 UNK         0.3140 
     76 H76        28.6374   -3.2998    1.6336 H         1 UNK         0.1085 
     77 H77        29.8177   -3.2638   -0.5373 H         1 UNK         0.0836 
     78 H78        28.4244   -3.9213   -1.3544 H         1 UNK         0.0836 
     79 H79        31.8522   -5.0788   -0.5081 H         1 UNK         0.0731 
     80 H80        31.4442   -6.6816   -1.0706 H         1 UNK         0.0731 
     81 H81        32.2236   -3.4641   -2.1947 H         1 UNK         0.1312 
     82 H82        30.2397   -3.6852   -5.9830 H         1 UNK         0.1406 
     83 H83        29.4614   -6.6504   -2.9838 H         1 UNK         0.1631 
     84 H84        28.8999   -6.9650   -5.5488 H         1 UNK         0.0717 
     85 H85        28.8057   -5.5167   -6.5140 H         1 UNK         0.0717 
     86 H86        26.3320   -3.6086   -3.8494 H         1 UNK         0.0934 
     87 H87        27.8740   -3.3439   -4.5772 H         1 UNK         0.0934 
     88 H88        25.3008   -3.7064   -6.1990 H         1 UNK         0.0739 
     89 H89        26.0990   -1.3926   -4.7315 H         1 UNK         0.3093 
     90 H90        24.7110    1.0556   -6.7916 H         1 UNK         0.0818 
     91 H91        22.9762    1.6087   -5.1051 H         1 UNK         0.0819 
     92 H92        22.4719    0.2153   -6.0440 H         1 UNK         0.0819 
     93 H93        23.0908   -0.0114   -4.4142 H         1 UNK         0.0819 
     94 H94        25.2199    1.2167   -4.0253 H         1 UNK         0.3041 
     95 H95        28.7163    1.0853   -3.9589 H         1 UNK         0.0784 
     96 H96        28.3325    3.4048   -4.8469 H         1 UNK         0.0793 
     97 H97        26.9676    3.5973   -3.7597 H         1 UNK         0.0793 
     98 H98        28.5995    3.3999   -3.1155 H         1 UNK         0.0793 
     99 H99        26.9723    1.8892   -1.9318 H         1 UNK         0.3024 
    100 H100       26.5628    0.4885   -0.1771 H         1 UNK         0.1171 
    101 H101       24.3686    0.7272   -1.3560 H         1 UNK         0.0786 
    102 H102       24.2128   -0.3839   -0.0059 H         1 UNK         0.0786 
    103 H103       24.3124   -1.0064   -1.6518 H         1 UNK         0.0786 
    104 H104       26.1000   -2.4158   -0.6584 H         1 UNK         0.2977 
    105 H105       27.6874   -1.1822   -6.8411 H         1 UNK         0.3127 
    106 H106       28.2676   -2.4126   -9.4787 H         1 UNK         0.0770 
    107 H107       30.3808   -1.2849   -7.5587 H         1 UNK         0.0814 
    108 H108       30.6583   -1.6392   -9.2604 H         1 UNK         0.0814 
    109 H109       30.2795   -2.9429   -8.1550 H         1 UNK         0.0814 
    110 H110       26.2499   -0.8052   -9.2033 H         1 UNK         0.2983 
    111 H111       26.4346    1.8672   -8.7999 H         1 UNK         0.0947 
    112 H112       24.3076    2.0276  -10.1229 H         1 UNK         0.0806 
    113 H113       24.2934    0.6238   -9.0762 H         1 UNK         0.0806 
    114 H114       24.5996    0.4313  -10.7981 H         1 UNK         0.0806 
    115 H115       27.4439    0.3104  -11.7874 H         1 UNK         0.3000 
    116 H116       27.5217    2.6329  -13.4656 H         1 UNK         0.0850 
    117 H117       28.9612    1.1900  -14.9142 H         1 UNK         0.0810 
    118 H118       27.5314    0.3229  -14.3808 H         1 UNK         0.0810 
    119 H119       29.0937    0.0011  -13.6261 H         1 UNK         0.0810 
    120 H120       29.7512    1.3543  -11.0490 H         1 UNK         0.3040 
    121 H121       31.7980    3.4488  -11.6914 H         1 UNK         0.0766 
    122 H122       33.3188    2.0115  -10.3387 H         1 UNK         0.0812 
    123 H123       32.6586    1.1125  -11.6960 H         1 UNK         0.0812 
    124 H124       32.0249    0.8522  -10.0710 H         1 UNK         0.0812 
    125 H125       29.5612    2.2076   -9.2883 H         1 UNK         0.3205 
    126 H126       28.7997    2.8225   -7.3287 H         1 UNK         0.0754 
    127 H127       28.9961    5.1020   -6.4166 H         1 UNK         0.0769 
    128 H128       28.6233    5.1914   -8.1300 H         1 UNK         0.0769 
    129 H129       30.2619    5.5068   -7.5602 H         1 UNK         0.0769 
    130 H130       30.8716    1.1274   -7.5941 H         1 UNK         0.2981 
    131 H131       32.5999    0.0940   -6.7159 H         1 UNK         0.0541 
    132 H132       35.4180    2.5632   -5.5595 H         1 UNK         0.3459 
    133 H133       34.3561    1.7297   -4.4551 H         1 UNK         0.3459 
    134 H134       31.7898    1.4619   -4.1071 H         1 UNK         0.0612 
    135 H135       33.0626    0.2782   -4.1871 H         1 UNK         0.0612 
    136 H136       32.9094   -2.0122   -3.9663 H         1 UNK         0.0624 
    137 H137       32.4092   -2.3142   -5.6140 H         1 UNK         0.0624 
@<TRIPOS>BOND
     1    1    2 1    
     2    1   72 1    
     3    1   73 1    
     4    1   74 1    
     5    2    3 2    
     6    2    4 am   BACKBONE|DICT|INTERRES
     7    4    5 1    
     8    4   75 1    
     9    5    6 1    
    10    5   35 1    
    11    5   76 1    
    12    6    7 1    
    13    6   77 1    
    14    6   78 1    
    15    7    8 1    
    16    8    9 1    
    17    8   79 1    
    18    8   80 1    
    19    9   10 ar   
    20    9   14 ar   
    21   10   11 ar   
    22   10   81 1    
    23   11   12 ar   
    24   11   71 1    
    25   12   13 ar   
    26   12   82 1    
    27   13   14 ar   
    28   13   15 1    
    29   14   83 1    
    30   15   16 1    
    31   15   84 1    
    32   15   85 1    
    33   16   17 1    
    34   17   18 1    
    35   17   86 1    
    36   17   87 1    
    37   18   19 1    
    38   18   37 1    
    39   18   88 1    
    40   19   20 am   BACKBONE|DICT|INTERRES
    41   19   89 1    
    42   20   21 2    
    43   20   22 1    
    44   22   23 1    
    45   22   24 1    
    46   22   90 1    
    47   23   91 1    
    48   23   92 1    
    49   23   93 1    
    50   24   25 am   BACKBONE|DICT|INTERRES
    51   24   94 1    
    52   25   26 2    
    53   25   27 1    
    54   27   28 1    
    55   27   29 1    
    56   27   95 1    
    57   28   96 1    
    58   28   97 1    
    59   28   98 1    
    60   29   30 am   BACKBONE|DICT|INTERRES
    61   29   99 1    
    62   30   31 2    
    63   30   32 1    
    64   32   33 1    
    65   32   34 1    
    66   32  100 1    
    67   33  101 1    
    68   33  102 1    
    69   33  103 1    
    70   34   35 am   BACKBONE|DICT|INTERRES
    71   34  104 1    
    72   35   36 2    
    73   37   38 2    
    74   37   39 am   BACKBONE|DICT|INTERRES
    75   39   40 1    
    76   39  105 1    
    77   40   41 1    
    78   40   42 1    
    79   40  106 1    
    80   41  107 1    
    81   41  108 1    
    82   41  109 1    
    83   42   43 2    
    84   42   44 am   BACKBONE|DICT|INTERRES
    85   44   45 1    
    86   44  110 1    
    87   45   46 1    
    88   45   47 1    
    89   45  111 1    
    90   46  112 1    
    91   46  113 1    
    92   46  114 1    
    93   47   48 2    
    94   47   49 am   BACKBONE|DICT|INTERRES
    95   49   50 1    
    96   49  115 1    
    97   50   51 1    
    98   50   52 1    
    99   50  116 1    
   100   51  117 1    
   101   51  118 1    
   102   51  119 1    
   103   52   53 2    
   104   52   54 am   BACKBONE|DICT|INTERRES
   105   54   55 1    
   106   54  120 1    
   107   55   56 1    
   108   55   57 1    
   109   55  121 1    
   110   56  122 1    
   111   56  123 1    
   112   56  124 1    
   113   57   58 2    
   114   57   59 am   BACKBONE|DICT|INTERRES
   115   59   60 1    
   116   59  125 1    
   117   60   61 1    
   118   60   62 1    
   119   60  126 1    
   120   61  127 1    
   121   61  128 1    
   122   61  129 1    
   123   62   63 2    
   124   62   64 am   BACKBONE|DICT|INTERRES
   125   64   65 1    
   126   64  130 1    
   127   65   66 1    
   128   65   69 1    
   129   65  131 1    
   130   66   67 am   BACKBONE|DICT|INTERRES
   131   66   68 2    
   132   67  132 1    
   133   67  133 1    
   134   69   70 1    
   135   69  134 1    
   136   69  135 1    
   137   70   71 1    
   138   71  136 1    
   139   71  137 1    
@<TRIPOS>SUBSTRUCTURE
     1 UNK         1 GROUP             0       ****    0 ROOT    
