@<TRIPOS>MOLECULE
3R137
137   139    1
SMALL
USER_CHARGES


@<TRIPOS>ATOM
      1 CA         24.5105   -5.8699   -5.1684 C.3       0 UNK        -0.2020 
      2 C          25.0016   -5.2868   -3.8527 C.2       0 UNK         0.4855 
      3 O          24.1919   -4.8292   -3.0464 O.2       0 UNK        -0.5197 
      4 N          26.3253   -5.2977   -3.6464 N.am      1 UNK        -0.4892 
      5 CA         27.0628   -4.7958   -2.4782 C.3       1 UNK         0.0835 
      6 C6         28.5800   -5.0321   -2.6994 C.3       12 UNK        -0.0855 
      7 S7         29.6083   -4.7701   -1.2168 S.3       12 UNK        -0.2931 
      8 C8         31.1853   -4.2357   -1.9714 C.3       12 UNK         0.0378 
      9 C9         31.0770   -2.8747   -2.6497 C.ar      12 UNK        -0.0802 
     10 C10        31.3041   -2.7363   -4.0250 C.ar      12 UNK        -0.0944 
     11 C11        31.1707   -1.4881   -4.6449 C.ar      12 UNK        -0.0787 
     12 C12        30.8096   -0.3783   -3.8763 C.ar      12 UNK        -0.0862 
     13 C13        30.5785   -0.5044   -2.5066 C.ar      12 UNK        -0.0733 
     14 C14        30.7300   -1.7509   -1.8959 C.ar      12 UNK        -0.0832 
     15 C15        30.1142    0.6863   -1.6880 C.3       12 UNK         0.0240 
     16 S16        28.3260    0.5663   -1.3903 S.3       12 UNK        -0.2522 
     17 C17        27.6355    1.8422   -2.4901 C.3       12 UNK        -0.0967 
     18 CA         27.7742    1.6003   -4.0192 C.3       5 UNK         0.0660 
     19 N          27.3998    0.2507   -4.4655 N.am      5 UNK        -0.4015 
     20 C          27.5312   -0.2036   -5.7257 C.2       4 UNK         0.4946 
     21 O          28.1114    0.4103   -6.6219 O.2       4 UNK        -0.5353 
     22 CA         26.8458   -1.5331   -6.0850 C.3       4 UNK         0.0277 
     23 CB         27.8208   -2.7177   -5.9953 C.3       4 UNK        -0.1981 
     24 N          25.6650   -1.7807   -5.2569 N.am      4 UNK        -0.4209 
     25 C          24.5068   -1.1151   -5.3837 C.2       3 UNK         0.4942 
     26 O          24.3081   -0.2648   -6.2513 O.2       3 UNK        -0.5208 
     27 CA         23.4008   -1.4075   -4.3540 C.3       3 UNK         0.0250 
     28 CB         22.3952   -2.4287   -4.9066 C.3       3 UNK        -0.1990 
     29 N          23.9349   -1.8778   -3.0725 N.am      3 UNK        -0.4232 
     30 C          24.5498   -1.0775   -2.1885 C.2       2 UNK         0.4993 
     31 O          24.6452    0.1415   -2.3332 O.2       2 UNK        -0.5286 
     32 CA         25.2148   -1.7502   -0.9711 C.3       2 UNK         0.0209 
     33 CB         24.2186   -1.8617    0.1935 C.3       2 UNK        -0.1931 
     34 N          25.7791   -3.0750   -1.2615 N.am      2 UNK        -0.4546 
     35 C          26.7192   -3.3160   -2.1875 C.2       1 UNK         0.5154 
     36 O          27.2333   -2.4268   -2.8637 O.2       1 UNK        -0.5181 
     37 C          26.9677    2.6809   -4.7642 C.2       5 UNK         0.5014 
     38 O          27.5499    3.6599   -5.2316 O.2       5 UNK        -0.5248 
     39 N          25.6441    2.4782   -4.8557 N.am      6 UNK        -0.4434 
     40 CA         24.7107    3.3766   -5.5382 C.3       6 UNK         0.0363 
     41 CB         23.2659    2.9915   -5.1813 C.3       6 UNK        -0.1936 
     42 C          24.9158    3.3931   -7.0614 C.2       6 UNK         0.5081 
     43 O          24.8612    4.4639   -7.6668 O.2       6 UNK        -0.5248 
     44 N          25.1654    2.2148   -7.6492 N.am      7 UNK        -0.4718 
     45 CA         25.4771    2.0538   -9.0719 C.3       7 UNK         0.0273 
     46 CB         25.3451    0.5704   -9.4516 C.3       7 UNK        -0.1935 
     47 C          26.8738    2.5752   -9.4581 C.2       7 UNK         0.5018 
     48 O          27.0647    2.9559  -10.6136 O.2       7 UNK        -0.5186 
     49 N          27.8154    2.5545   -8.5006 N.am      8 UNK        -0.4240 
     50 CA         29.2519    2.8235   -8.6431 C.3       8 UNK         0.0235 
     51 CB         29.5119    4.3012   -9.0033 C.3       8 UNK        -0.2000 
     52 C          29.9042    1.8294   -9.6214 C.2       8 UNK         0.4941 
     53 O          30.5815    2.2345  -10.5695 O.2       8 UNK        -0.5273 
     54 N          29.6404    0.5350   -9.3956 N.am      9 UNK        -0.4262 
     55 CA         29.9603   -0.5793  -10.2947 C.3       9 UNK         0.0264 
     56 CB         29.0724   -1.7793   -9.9172 C.3       9 UNK        -0.1955 
     57 C          31.4599   -0.9449  -10.3354 C.2       9 UNK         0.5031 
     58 O          31.8195   -2.0876  -10.0410 O.2       9 UNK        -0.5390 
     59 N          32.3064    0.0302  -10.6969 N.am      10 UNK        -0.4204 
     60 CA         33.7736    0.0024  -10.8312 C.3       10 UNK         0.0237 
     61 CB         34.2298   -1.0141  -11.8967 C.3       10 UNK        -0.1985 
     62 C          34.5234   -0.2003   -9.5015 C.2       10 UNK         0.4970 
     63 O          35.3958    0.6049   -9.1731 O.2       10 UNK        -0.4914 
     64 N          34.1347   -1.2388   -8.7563 N.am      11 UNK        -0.4285 
     65 CA         34.5425   -1.5543   -7.3806 C.3       11 UNK         0.1007 
     66 C          36.0524   -1.9151   -7.2391 C.2       11 UNK         0.5703 
     67 N          36.6113   -1.8686   -6.0362 N.am      11 UNK        -0.7361 
     68 O          36.7172   -2.2939   -8.2024 O.2       11 UNK        -0.4986 
     69 C69        34.0401   -0.4987   -6.3444 C.3       12 UNK        -0.0947 
     70 S70        32.3372    0.0951   -6.6407 S.3       12 UNK        -0.2240 
     71 C71        31.3408   -1.3496   -6.1532 C.3       12 UNK         0.0194 
     72 H72        24.4170   -5.0854   -5.9186 H         1 UNK         0.0906 
     73 H73        25.1933   -6.6289   -5.5499 H         1 UNK         0.0906 
     74 H74        23.5339   -6.3353   -5.0361 H         1 UNK         0.0906 
     75 H75        26.9100   -5.6878   -4.3717 H         1 UNK         0.3140 
     76 H76        26.7503   -5.3926   -1.6189 H         1 UNK         0.1085 
     77 H77        28.7508   -6.0622   -3.0167 H         1 UNK         0.0836 
     78 H78        28.9442   -4.4093   -3.5172 H         1 UNK         0.0836 
     79 H79        31.5201   -4.9980   -2.6767 H         1 UNK         0.0731 
     80 H80        31.9478   -4.1819   -1.1932 H         1 UNK         0.0731 
     81 H81        31.5622   -3.6039   -4.6165 H         1 UNK         0.1312 
     82 H82        30.6888    0.5815   -4.3558 H         1 UNK         0.1406 
     83 H83        30.5338   -1.8558   -0.8375 H         1 UNK         0.1631 
     84 H84        30.3610    1.6269   -2.1826 H         1 UNK         0.0717 
     85 H85        30.6346    0.6965   -0.7292 H         1 UNK         0.0717 
     86 H86        26.5843    1.9391   -2.2120 H         1 UNK         0.0934 
     87 H87        28.0935    2.7967   -2.2223 H         1 UNK         0.0934 
     88 H88        28.8188    1.7489   -4.2902 H         1 UNK         0.0739 
     89 H89        27.0093   -0.3672   -3.7641 H         1 UNK         0.3093 
     90 H90        26.5102   -1.4659   -7.1211 H         1 UNK         0.0818 
     91 H91        28.5361   -2.6896   -6.8149 H         1 UNK         0.0819 
     92 H92        28.3996   -2.7028   -5.0731 H         1 UNK         0.0819 
     93 H93        27.3023   -3.6739   -6.0585 H         1 UNK         0.0819 
     94 H94        25.8009   -2.3852   -4.4572 H         1 UNK         0.3041 
     95 H95        22.8639   -0.4723   -4.1800 H         1 UNK         0.0784 
     96 H96        21.9575   -2.0764   -5.8418 H         1 UNK         0.0793 
     97 H97        22.8617   -3.3917   -5.1088 H         1 UNK         0.0793 
     98 H98        21.5751   -2.5946   -4.2079 H         1 UNK         0.0793 
     99 H99        23.9150   -2.8800   -2.8997 H         1 UNK         0.3024 
    100 H100       26.0374   -1.1056   -0.6567 H         1 UNK         0.1171 
    101 H101       24.7009   -2.2441    1.0933 H         1 UNK         0.0786 
    102 H102       23.7998   -0.8855    0.4426 H         1 UNK         0.0786 
    103 H103       23.3852   -2.5223   -0.0493 H         1 UNK         0.0786 
    104 H104       25.3496   -3.8613   -0.7948 H         1 UNK         0.2977 
    105 H105       25.2518    1.6472   -4.4337 H         1 UNK         0.3127 
    106 H106       24.8919    4.3886   -5.1693 H         1 UNK         0.0770 
    107 H107       23.0158    1.9866   -5.5226 H         1 UNK         0.0814 
    108 H108       22.5559    3.6775   -5.6453 H         1 UNK         0.0814 
    109 H109       23.0981    3.0314   -4.1049 H         1 UNK         0.0814 
    110 H110       25.1044    1.3682   -7.0906 H         1 UNK         0.2983 
    111 H111       24.7425    2.6217   -9.6473 H         1 UNK         0.0947 
    112 H112       25.5027    0.4260  -10.5213 H         1 UNK         0.0806 
    113 H113       24.3537    0.1842   -9.2134 H         1 UNK         0.0806 
    114 H114       26.0790   -0.0430   -8.9297 H         1 UNK         0.0806 
    115 H115       27.5535    2.1503   -7.6081 H         1 UNK         0.3000 
    116 H116       29.6992    2.6356   -7.6653 H         1 UNK         0.0850 
    117 H117       30.5808    4.5177   -9.0053 H         1 UNK         0.0810 
    118 H118       29.0457    4.9707   -8.2804 H         1 UNK         0.0810 
    119 H119       29.1283    4.5542   -9.9920 H         1 UNK         0.0810 
    120 H120       29.1139    0.3082   -8.5586 H         1 UNK         0.3040 
    121 H121       29.6857   -0.2779  -11.3079 H         1 UNK         0.0766 
    122 H122       28.0143   -1.5178   -9.9375 H         1 UNK         0.0812 
    123 H123       29.3102   -2.1521   -8.9216 H         1 UNK         0.0812 
    124 H124       29.2139   -2.6052  -10.6156 H         1 UNK         0.0812 
    125 H125       31.8757    0.9437  -10.8386 H         1 UNK         0.3205 
    126 H126       34.0484    0.9945  -11.1934 H         1 UNK         0.0754 
    127 H127       35.3094   -0.9627  -12.0443 H         1 UNK         0.0769 
    128 H128       33.7610   -0.8140  -12.8601 H         1 UNK         0.0769 
    129 H129       33.9915   -2.0402  -11.6154 H         1 UNK         0.0769 
    130 H130       33.3848   -1.8110   -9.1375 H         1 UNK         0.2981 
    131 H131       34.0292   -2.4895   -7.1590 H         1 UNK         0.0541 
    132 H132       36.0842   -1.5819   -5.2267 H         1 UNK         0.3459 
    133 H133       37.5821   -2.1216   -5.9387 H         1 UNK         0.3459 
    134 H134       34.6908    0.3772   -6.3580 H         1 UNK         0.0612 
    135 H135       34.0872   -0.9005   -5.3311 H         1 UNK         0.0612 
    136 H136       30.3544   -1.2302   -6.5986 H         1 UNK         0.0624 
    137 H137       31.7635   -2.2545   -6.5899 H         1 UNK         0.0624 
@<TRIPOS>BOND
     1    1    2 1    
     2    1   72 1    
     3    1   73 1    
     4    1   74 1    
     5    2    3 2    
     6    2    4 am   BACKBONE|DICT|INTERRES
     7    4    5 1    
     8    4   75 1    
     9    5    6 1    
    10    5   35 1    
    11    5   76 1    
    12    6    7 1    
    13    6   77 1    
    14    6   78 1    
    15    7    8 1    
    16    8    9 1    
    17    8   79 1    
    18    8   80 1    
    19    9   10 ar   
    20    9   14 ar   
    21   10   11 ar   
    22   10   81 1    
    23   11   12 ar   
    24   11   71 1    
    25   12   13 ar   
    26   12   82 1    
    27   13   14 ar   
    28   13   15 1    
    29   14   83 1    
    30   15   16 1    
    31   15   84 1    
    32   15   85 1    
    33   16   17 1    
    34   17   18 1    
    35   17   86 1    
    36   17   87 1    
    37   18   19 1    
    38   18   37 1    
    39   18   88 1    
    40   19   20 am   BACKBONE|DICT|INTERRES
    41   19   89 1    
    42   20   21 2    
    43   20   22 1    
    44   22   23 1    
    45   22   24 1    
    46   22   90 1    
    47   23   91 1    
    48   23   92 1    
    49   23   93 1    
    50   24   25 am   BACKBONE|DICT|INTERRES
    51   24   94 1    
    52   25   26 2    
    53   25   27 1    
    54   27   28 1    
    55   27   29 1    
    56   27   95 1    
    57   28   96 1    
    58   28   97 1    
    59   28   98 1    
    60   29   30 am   BACKBONE|DICT|INTERRES
    61   29   99 1    
    62   30   31 2    
    63   30   32 1    
    64   32   33 1    
    65   32   34 1    
    66   32  100 1    
    67   33  101 1    
    68   33  102 1    
    69   33  103 1    
    70   34   35 am   BACKBONE|DICT|INTERRES
    71   34  104 1    
    72   35   36 2    
    73   37   38 2    
    74   37   39 am   BACKBONE|DICT|INTERRES
    75   39   40 1    
    76   39  105 1    
    77   40   41 1    
    78   40   42 1    
    79   40  106 1    
    80   41  107 1    
    81   41  108 1    
    82   41  109 1    
    83   42   43 2    
    84   42   44 am   BACKBONE|DICT|INTERRES
    85   44   45 1    
    86   44  110 1    
    87   45   46 1    
    88   45   47 1    
    89   45  111 1    
    90   46  112 1    
    91   46  113 1    
    92   46  114 1    
    93   47   48 2    
    94   47   49 am   BACKBONE|DICT|INTERRES
    95   49   50 1    
    96   49  115 1    
    97   50   51 1    
    98   50   52 1    
    99   50  116 1    
   100   51  117 1    
   101   51  118 1    
   102   51  119 1    
   103   52   53 2    
   104   52   54 am   BACKBONE|DICT|INTERRES
   105   54   55 1    
   106   54  120 1    
   107   55   56 1    
   108   55   57 1    
   109   55  121 1    
   110   56  122 1    
   111   56  123 1    
   112   56  124 1    
   113   57   58 2    
   114   57   59 am   BACKBONE|DICT|INTERRES
   115   59   60 1    
   116   59  125 1    
   117   60   61 1    
   118   60   62 1    
   119   60  126 1    
   120   61  127 1    
   121   61  128 1    
   122   61  129 1    
   123   62   63 2    
   124   62   64 am   BACKBONE|DICT|INTERRES
   125   64   65 1    
   126   64  130 1    
   127   65   66 1    
   128   65   69 1    
   129   65  131 1    
   130   66   67 am   BACKBONE|DICT|INTERRES
   131   66   68 2    
   132   67  132 1    
   133   67  133 1    
   134   69   70 1    
   135   69  134 1    
   136   69  135 1    
   137   70   71 1    
   138   71  136 1    
   139   71  137 1    
@<TRIPOS>SUBSTRUCTURE
     1 UNK         1 GROUP             0       ****    0 ROOT    
