@<TRIPOS>MOLECULE
3R137
137   139    1
SMALL
USER_CHARGES


@<TRIPOS>ATOM
      1 CA         25.6522   -4.4236    1.6587 C.3       0 UNK        -0.2020 
      2 C          26.1272   -3.4712    0.5725 C.2       0 UNK         0.4855 
      3 O          25.4293   -3.2835   -0.4234 O.2       0 UNK        -0.5197 
      4 N          27.2951   -2.8413    0.7700 N.am      1 UNK        -0.4892 
      5 CA         27.9992   -1.9514   -0.1761 C.3       1 UNK         0.0835 
      6 C6         28.3951   -2.6664   -1.4999 C.3       12 UNK        -0.0855 
      7 S7         29.4219   -4.1485   -1.2193 S.3       12 UNK        -0.2931 
      8 C8         30.9466   -3.7175   -2.1276 C.3       12 UNK         0.0378 
      9 C9         30.8082   -3.7199   -3.6515 C.ar      12 UNK        -0.0802 
     10 C10        31.6051   -2.8536   -4.4077 C.ar      12 UNK        -0.0944 
     11 C11        31.5712   -2.8776   -5.8092 C.ar      12 UNK        -0.0787 
     12 C12        30.7079   -3.7759   -6.4447 C.ar      12 UNK        -0.0862 
     13 C13        29.8924   -4.6403   -5.7094 C.ar      12 UNK        -0.0733 
     14 C14        29.9544   -4.6111   -4.3137 C.ar      12 UNK        -0.0832 
     15 C15        28.9924   -5.6544   -6.4113 C.3       12 UNK         0.0240 
     16 S16        27.9801   -4.9470   -7.7554 S.3       12 UNK        -0.2522 
     17 C17        26.8249   -3.8738   -6.8388 C.3       12 UNK        -0.0967 
     18 CA         26.6354   -2.4924   -7.5155 C.3       5 UNK         0.0660 
     19 N          25.3876   -1.8561   -7.0815 N.am      5 UNK        -0.4015 
     20 C          24.9368   -0.6597   -7.4855 C.2       4 UNK         0.4946 
     21 O          25.4713    0.0046   -8.3728 O.2       4 UNK        -0.5353 
     22 CA         23.7199   -0.0661   -6.7523 C.3       4 UNK         0.0277 
     23 CB         22.4690   -0.1590   -7.6407 C.3       4 UNK        -0.1981 
     24 N          23.4217   -0.6455   -5.4347 N.am      4 UNK        -0.4209 
     25 C          24.2534   -0.7085   -4.3838 C.2       3 UNK         0.4942 
     26 O          25.4423   -0.3790   -4.4221 O.2       3 UNK        -0.5208 
     27 CA         23.6565   -1.3197   -3.1043 C.3       3 UNK         0.0250 
     28 CB         23.7229   -2.8544   -3.1745 C.3       3 UNK        -0.1990 
     29 N          24.3341   -0.8709   -1.8862 N.am      3 UNK        -0.4232 
     30 C          24.3500    0.3916   -1.4279 C.2       2 UNK         0.4993 
     31 O          23.7288    1.3155   -1.9559 O.2       2 UNK        -0.5286 
     32 CA         25.1693    0.6828   -0.1533 C.3       2 UNK         0.0209 
     33 CB         24.2370    0.9115    1.0484 C.3       2 UNK        -0.1931 
     34 N          26.1100   -0.3899    0.1755 N.am      2 UNK        -0.4546 
     35 C          27.2633   -0.6198   -0.4664 C.2       1 UNK         0.5154 
     36 O          27.7489    0.1769   -1.2691 O.2       1 UNK        -0.5181 
     37 C          27.8641   -1.5792   -7.3064 C.2       5 UNK         0.5014 
     38 O          28.7098   -1.4898   -8.1985 O.2       5 UNK        -0.5248 
     39 N          27.9075   -0.8663   -6.1688 N.am      6 UNK        -0.4434 
     40 CA         28.9730    0.0845   -5.8500 C.3       6 UNK         0.0363 
     41 CB         28.8851    0.4989   -4.3767 C.3       6 UNK        -0.1936 
     42 C          28.9773    1.3238   -6.7558 C.2       6 UNK         0.5081 
     43 O          30.0487    1.8764   -7.0001 O.2       6 UNK        -0.5248 
     44 N          27.8037    1.7345   -7.2517 N.am      7 UNK        -0.4718 
     45 CA         27.6745    2.8108   -8.2328 C.3       7 UNK         0.0273 
     46 CB         26.2543    3.3982   -8.1849 C.3       7 UNK        -0.1935 
     47 C          28.0252    2.3129   -9.6423 C.2       7 UNK         0.5018 
     48 O          28.7963    2.9715  -10.3396 O.2       7 UNK        -0.5186 
     49 N          27.4749    1.1498  -10.0205 N.am      8 UNK        -0.4240 
     50 CA         27.6470    0.5146  -11.3291 C.3       8 UNK         0.0235 
     51 CB         26.7357   -0.7197  -11.4244 C.3       8 UNK        -0.2000 
     52 C          29.1029    0.1391  -11.6469 C.2       8 UNK         0.4941 
     53 O          29.5703    0.4290  -12.7489 O.2       8 UNK        -0.5273 
     54 N          29.7948   -0.4800  -10.6807 N.am      9 UNK        -0.4262 
     55 CA         31.1991   -0.8851  -10.8028 C.3       9 UNK         0.0264 
     56 CB         31.3823   -2.2539  -10.1305 C.3       9 UNK        -0.1955 
     57 C          32.1873    0.1682  -10.2614 C.2       9 UNK         0.5031 
     58 O          33.3919   -0.0884  -10.2736 O.2       9 UNK        -0.5390 
     59 N          31.6770    1.3327   -9.8316 N.am      10 UNK        -0.4204 
     60 CA         32.4125    2.5296   -9.4043 C.3       10 UNK         0.0237 
     61 CB         33.1413    3.1712  -10.6049 C.3       10 UNK        -0.1985 
     62 C          33.3339    2.3110   -8.1860 C.2       10 UNK         0.4970 
     63 O          34.4692    2.7923   -8.1775 O.2       10 UNK        -0.4914 
     64 N          32.8106    1.6266   -7.1634 N.am      11 UNK        -0.4285 
     65 CA         33.3932    1.5850   -5.8124 C.3       11 UNK         0.1007 
     66 C          32.9530    2.7984   -4.9460 C.2       11 UNK         0.5703 
     67 N          31.8203    3.4343   -5.2264 N.am      11 UNK        -0.7361 
     68 O          33.6571    3.1736   -4.0117 O.2       11 UNK        -0.4986 
     69 C69        33.0819    0.2573   -5.0759 C.3       12 UNK        -0.0947 
     70 S70        33.8688   -1.1813   -5.8709 S.3       12 UNK        -0.2240 
     71 C71        32.4434   -1.9733   -6.6869 C.3       12 UNK         0.0194 
     72 H72        26.3529   -4.4762    2.4917 H         1 UNK         0.0906 
     73 H73        24.6865   -4.0999    2.0460 H         1 UNK         0.0906 
     74 H74        25.5362   -5.4267    1.2495 H         1 UNK         0.0906 
     75 H75        27.8025   -3.0256    1.6251 H         1 UNK         0.3140 
     76 H76        28.9234   -1.6575    0.3242 H         1 UNK         0.1085 
     77 H77        27.5094   -2.9615   -2.0652 H         1 UNK         0.0836 
     78 H78        28.9463   -1.9868   -2.1495 H         1 UNK         0.0836 
     79 H79        31.2966   -2.7449   -1.7773 H         1 UNK         0.0731 
     80 H80        31.7208   -4.4367   -1.8574 H         1 UNK         0.0731 
     81 H81        32.2698   -2.1776   -3.8906 H         1 UNK         0.1312 
     82 H82        30.6722   -3.8138   -7.5240 H         1 UNK         0.1406 
     83 H83        29.3508   -5.3025   -3.7421 H         1 UNK         0.1631 
     84 H84        29.6227   -6.4395   -6.8307 H         1 UNK         0.0717 
     85 H85        28.3277   -6.1445   -5.6980 H         1 UNK         0.0717 
     86 H86        25.8732   -4.4065   -6.8005 H         1 UNK         0.0934 
     87 H87        27.1452   -3.7633   -5.8005 H         1 UNK         0.0934 
     88 H88        26.5309   -2.6497   -8.5908 H         1 UNK         0.0739 
     89 H89        24.8783   -2.3209   -6.3457 H         1 UNK         0.3093 
     90 H90        23.9427    0.9905   -6.5900 H         1 UNK         0.0818 
     91 H91        21.6247    0.3688   -7.1969 H         1 UNK         0.0819 
     92 H92        22.6490    0.2912   -8.6184 H         1 UNK         0.0819 
     93 H93        22.1694   -1.1941   -7.8097 H         1 UNK         0.0819 
     94 H94        22.4743   -0.9723   -5.3060 H         1 UNK         0.3041 
     95 H95        22.6104   -1.0151   -3.0305 H         1 UNK         0.0784 
     96 H96        23.1938   -3.2374   -4.0480 H         1 UNK         0.0793 
     97 H97        24.7530   -3.2095   -3.2323 H         1 UNK         0.0793 
     98 H98        23.2644   -3.3104   -2.2966 H         1 UNK         0.0793 
     99 H99        24.8565   -1.5794   -1.3807 H         1 UNK         0.3024 
    100 H100       25.7332    1.6009   -0.3342 H         1 UNK         0.1171 
    101 H101       24.8005    1.1765    1.9432 H         1 UNK         0.0786 
    102 H102       23.5408    1.7283    0.8526 H         1 UNK         0.0786 
    103 H103       23.6435    0.0245    1.2739 H         1 UNK         0.0786 
    104 H104       25.7885   -1.0994    0.8185 H         1 UNK         0.2977 
    105 H105       27.1361   -0.9240   -5.5107 H         1 UNK         0.3127 
    106 H106       29.9232   -0.4280   -5.9984 H         1 UNK         0.0770 
    107 H107       27.9239    0.9566   -4.1389 H         1 UNK         0.0814 
    108 H108       29.6638    1.2193   -4.1220 H         1 UNK         0.0814 
    109 H109       29.0175   -0.3602   -3.7226 H         1 UNK         0.0814 
    110 H110       26.9734    1.1959   -7.0470 H         1 UNK         0.2983 
    111 H111       28.3751    3.6092   -7.9761 H         1 UNK         0.0947 
    112 H112       26.1536    4.2251   -8.8892 H         1 UNK         0.0806 
    113 H113       26.0210    3.7877   -7.1939 H         1 UNK         0.0806 
    114 H114       25.4941    2.6602   -8.4415 H         1 UNK         0.0806 
    115 H115       26.8292    0.6925   -9.3780 H         1 UNK         0.3000 
    116 H116       27.3219    1.2348  -12.0829 H         1 UNK         0.0850 
    117 H117       26.8168   -1.1916  -12.4045 H         1 UNK         0.0810 
    118 H118       25.6889   -0.4523  -11.2780 H         1 UNK         0.0810 
    119 H119       26.9954   -1.4702  -10.6773 H         1 UNK         0.0810 
    120 H120       29.3294   -0.7167   -9.8049 H         1 UNK         0.3040 
    121 H121       31.4497   -1.0145  -11.8578 H         1 UNK         0.0766 
    122 H122       30.7982   -3.0217  -10.6379 H         1 UNK         0.0812 
    123 H123       31.0572   -2.2273   -9.0947 H         1 UNK         0.0812 
    124 H124       32.4244   -2.5755  -10.1470 H         1 UNK         0.0812 
    125 H125       30.6715    1.4363   -9.8633 H         1 UNK         0.3205 
    126 H126       31.6519    3.2388   -9.0733 H         1 UNK         0.0754 
    127 H127       33.5831    4.1296  -10.3294 H         1 UNK         0.0769 
    128 H128       32.4541    3.3591  -11.4301 H         1 UNK         0.0769 
    129 H129       33.9462    2.5359  -10.9761 H         1 UNK         0.0769 
    130 H130       31.8289    1.3750   -7.2266 H         1 UNK         0.2981 
    131 H131       34.4792    1.6555   -5.8999 H         1 UNK         0.0541 
    132 H132       31.2078    3.0896   -5.9570 H         1 UNK         0.3459 
    133 H133       31.5455    4.2251   -4.6664 H         1 UNK         0.3459 
    134 H134       32.0055    0.1023   -4.9963 H         1 UNK         0.0612 
    135 H135       33.4571    0.2924   -4.0513 H         1 UNK         0.0612 
    136 H136       32.8469   -2.5711   -7.5051 H         1 UNK         0.0624 
    137 H137       31.8235   -1.2025   -7.1450 H         1 UNK         0.0624 
@<TRIPOS>BOND
     1    1    2 1    
     2    1   72 1    
     3    1   73 1    
     4    1   74 1    
     5    2    3 2    
     6    2    4 am   BACKBONE|DICT|INTERRES
     7    4    5 1    
     8    4   75 1    
     9    5    6 1    
    10    5   35 1    
    11    5   76 1    
    12    6    7 1    
    13    6   77 1    
    14    6   78 1    
    15    7    8 1    
    16    8    9 1    
    17    8   79 1    
    18    8   80 1    
    19    9   10 ar   
    20    9   14 ar   
    21   10   11 ar   
    22   10   81 1    
    23   11   12 ar   
    24   11   71 1    
    25   12   13 ar   
    26   12   82 1    
    27   13   14 ar   
    28   13   15 1    
    29   14   83 1    
    30   15   16 1    
    31   15   84 1    
    32   15   85 1    
    33   16   17 1    
    34   17   18 1    
    35   17   86 1    
    36   17   87 1    
    37   18   19 1    
    38   18   37 1    
    39   18   88 1    
    40   19   20 am   BACKBONE|DICT|INTERRES
    41   19   89 1    
    42   20   21 2    
    43   20   22 1    
    44   22   23 1    
    45   22   24 1    
    46   22   90 1    
    47   23   91 1    
    48   23   92 1    
    49   23   93 1    
    50   24   25 am   BACKBONE|DICT|INTERRES
    51   24   94 1    
    52   25   26 2    
    53   25   27 1    
    54   27   28 1    
    55   27   29 1    
    56   27   95 1    
    57   28   96 1    
    58   28   97 1    
    59   28   98 1    
    60   29   30 am   BACKBONE|DICT|INTERRES
    61   29   99 1    
    62   30   31 2    
    63   30   32 1    
    64   32   33 1    
    65   32   34 1    
    66   32  100 1    
    67   33  101 1    
    68   33  102 1    
    69   33  103 1    
    70   34   35 am   BACKBONE|DICT|INTERRES
    71   34  104 1    
    72   35   36 2    
    73   37   38 2    
    74   37   39 am   BACKBONE|DICT|INTERRES
    75   39   40 1    
    76   39  105 1    
    77   40   41 1    
    78   40   42 1    
    79   40  106 1    
    80   41  107 1    
    81   41  108 1    
    82   41  109 1    
    83   42   43 2    
    84   42   44 am   BACKBONE|DICT|INTERRES
    85   44   45 1    
    86   44  110 1    
    87   45   46 1    
    88   45   47 1    
    89   45  111 1    
    90   46  112 1    
    91   46  113 1    
    92   46  114 1    
    93   47   48 2    
    94   47   49 am   BACKBONE|DICT|INTERRES
    95   49   50 1    
    96   49  115 1    
    97   50   51 1    
    98   50   52 1    
    99   50  116 1    
   100   51  117 1    
   101   51  118 1    
   102   51  119 1    
   103   52   53 2    
   104   52   54 am   BACKBONE|DICT|INTERRES
   105   54   55 1    
   106   54  120 1    
   107   55   56 1    
   108   55   57 1    
   109   55  121 1    
   110   56  122 1    
   111   56  123 1    
   112   56  124 1    
   113   57   58 2    
   114   57   59 am   BACKBONE|DICT|INTERRES
   115   59   60 1    
   116   59  125 1    
   117   60   61 1    
   118   60   62 1    
   119   60  126 1    
   120   61  127 1    
   121   61  128 1    
   122   61  129 1    
   123   62   63 2    
   124   62   64 am   BACKBONE|DICT|INTERRES
   125   64   65 1    
   126   64  130 1    
   127   65   66 1    
   128   65   69 1    
   129   65  131 1    
   130   66   67 am   BACKBONE|DICT|INTERRES
   131   66   68 2    
   132   67  132 1    
   133   67  133 1    
   134   69   70 1    
   135   69  134 1    
   136   69  135 1    
   137   70   71 1    
   138   71  136 1    
   139   71  137 1    
@<TRIPOS>SUBSTRUCTURE
     1 UNK         1 GROUP             0       ****    0 ROOT    
