@<TRIPOS>MOLECULE
3R137
137   139    1
SMALL
USER_CHARGES


@<TRIPOS>ATOM
      1 CA         26.7119    0.2423    1.6156 C.3       0 UNK        -0.2020 
      2 C          27.3590   -0.4917    0.4506 C.2       0 UNK         0.4855 
      3 O          27.4133    0.0457   -0.6556 O.2       0 UNK        -0.5197 
      4 N          27.8582   -1.7094    0.6941 N.am      1 UNK        -0.4892 
      5 CA         28.4640   -2.5769   -0.3215 C.3       1 UNK         0.0835 
      6 C6         29.3923   -3.6446    0.3086 C.3       12 UNK        -0.0855 
      7 S7         30.8424   -2.8783    1.1086 S.3       12 UNK        -0.2931 
      8 C8         32.1531   -3.1721   -0.1272 C.3       12 UNK         0.0378 
      9 C9         31.8068   -2.6160   -1.5043 C.ar      12 UNK        -0.0802 
     10 C10        31.7417   -3.4682   -2.6096 C.ar      12 UNK        -0.0944 
     11 C11        31.4491   -2.9639   -3.8796 C.ar      12 UNK        -0.0787 
     12 C12        31.1893   -1.5990   -4.0352 C.ar      12 UNK        -0.0862 
     13 C13        31.2131   -0.7345   -2.9308 C.ar      12 UNK        -0.0733 
     14 C14        31.5533   -1.2519   -1.6765 C.ar      12 UNK        -0.0832 
     15 C15        30.8889    0.7596   -3.0237 C.3       12 UNK         0.0240 
     16 S16        30.1948    1.3474   -4.6075 S.3       12 UNK        -0.2522 
     17 C17        28.5327    0.5912   -4.6008 C.3       12 UNK        -0.0967 
     18 CA         27.7400    0.9617   -5.8823 C.3       5 UNK         0.0660 
     19 N          26.9309   -0.1524   -6.3843 N.am      5 UNK        -0.4015 
     20 C          26.4164   -0.2089   -7.6238 C.2       4 UNK         0.4946 
     21 O          26.5462    0.6974   -8.4490 O.2       4 UNK        -0.5353 
     22 CA         25.5822   -1.4477   -8.0039 C.3       4 UNK         0.0277 
     23 CB         26.4662   -2.4921   -8.7050 C.3       4 UNK        -0.1981 
     24 N          24.9138   -2.0872   -6.8695 N.am      4 UNK        -0.4209 
     25 C          24.0342   -1.5014   -6.0448 C.2       3 UNK         0.4942 
     26 O          23.6131   -0.3547   -6.1936 O.2       3 UNK        -0.5208 
     27 CA         23.6117   -2.3096   -4.8035 C.3       3 UNK         0.0250 
     28 CB         22.3118   -3.0812   -5.0817 C.3       3 UNK        -0.1990 
     29 N          24.6397   -3.2405   -4.3115 N.am      3 UNK        -0.4232 
     30 C          25.8815   -2.8897   -3.9453 C.2       2 UNK         0.4993 
     31 O          26.3231   -1.7417   -4.0340 O.2       2 UNK        -0.5286 
     32 CA         26.8138   -4.0159   -3.4754 C.3       2 UNK         0.0209 
     33 CB         27.6233   -4.5617   -4.6636 C.3       2 UNK        -0.1931 
     34 N          27.7396   -3.5215   -2.4560 N.am      2 UNK        -0.4546 
     35 C          27.3836   -3.2359   -1.1972 C.2       1 UNK         0.5154 
     36 O          26.2744   -3.4981   -0.7221 O.2       1 UNK        -0.5181 
     37 C          26.9270    2.2647   -5.7185 C.2       5 UNK         0.5014 
     38 O          27.5181    3.3440   -5.7522 O.2       5 UNK        -0.5248 
     39 N          25.5888    2.1720   -5.6322 N.am      6 UNK        -0.4434 
     40 CA         24.6812    3.3248   -5.6853 C.3       6 UNK         0.0363 
     41 CB         23.2597    2.8811   -5.3069 C.3       6 UNK        -0.1936 
     42 C          24.6797    4.0293   -7.0575 C.2       6 UNK         0.5081 
     43 O          24.3841    5.2225   -7.1196 O.2       6 UNK        -0.5248 
     44 N          25.0379    3.2950   -8.1204 N.am      7 UNK        -0.4718 
     45 CA         25.2631    3.8101   -9.4732 C.3       7 UNK         0.0273 
     46 CB         24.6117    2.8421  -10.4776 C.3       7 UNK        -0.1935 
     47 C          26.7656    3.9877   -9.7751 C.2       7 UNK         0.5018 
     48 O          27.1127    4.2739  -10.9217 O.2       7 UNK        -0.5186 
     49 N          27.6252    3.8001   -8.7594 N.am      8 UNK        -0.4240 
     50 CA         29.0924    3.8097   -8.8026 C.3       8 UNK         0.0235 
     51 CB         29.6223    5.2238   -9.1241 C.3       8 UNK        -0.2000 
     52 C          29.6928    2.7191   -9.7148 C.2       8 UNK         0.4941 
     53 O          30.7660    2.9285  -10.2846 O.2       8 UNK        -0.5273 
     54 N          29.0025    1.5781   -9.8363 N.am      9 UNK        -0.4262 
     55 CA         29.4316    0.4155  -10.6106 C.3       9 UNK         0.0264 
     56 CB         28.2558   -0.0389  -11.4931 C.3       9 UNK        -0.1955 
     57 C          29.8914   -0.7115   -9.6718 C.2       9 UNK         0.5031 
     58 O          29.5432   -0.7083   -8.4894 O.2       9 UNK        -0.5390 
     59 N          30.6426   -1.6653  -10.2426 N.am      10 UNK        -0.4204 
     60 CA         31.2578   -2.8441   -9.6130 C.3       10 UNK         0.0237 
     61 CB         30.1996   -3.7341   -8.9240 C.3       10 UNK        -0.1985 
     62 C          32.4203   -2.5049   -8.6581 C.2       10 UNK         0.4970 
     63 O          32.5580   -1.3677   -8.2040 O.2       10 UNK        -0.4914 
     64 N          33.2518   -3.5205   -8.3882 N.am      11 UNK        -0.4285 
     65 CA         34.4210   -3.4739   -7.4881 C.3       11 UNK         0.1007 
     66 C          35.5583   -2.4988   -7.9280 C.2       11 UNK         0.5703 
     67 N          35.6328   -2.1034   -9.1937 N.am      11 UNK        -0.7361 
     68 O          36.4110   -2.1229   -7.1266 O.2       11 UNK        -0.4986 
     69 C69        34.0198   -3.3124   -5.9928 C.3       12 UNK        -0.0947 
     70 S70        32.9968   -4.7044   -5.4042 S.3       12 UNK        -0.2240 
     71 C71        31.3974   -3.8973   -5.0820 C.3       12 UNK         0.0194 
     72 H72        26.7466   -0.3405    2.5359 H         1 UNK         0.0906 
     73 H73        27.2236    1.1878    1.7938 H         1 UNK         0.0906 
     74 H74        25.6678    0.4571    1.3894 H         1 UNK         0.0906 
     75 H75        27.7732   -2.1109    1.6168 H         1 UNK         0.3140 
     76 H76        29.0579   -1.9438   -0.9815 H         1 UNK         0.1085 
     77 H77        28.8526   -4.2326    1.0533 H         1 UNK         0.0836 
     78 H78        29.7391   -4.3588   -0.4412 H         1 UNK         0.0836 
     79 H79        32.3519   -4.2438   -0.1793 H         1 UNK         0.0731 
     80 H80        33.0765   -2.7070    0.2205 H         1 UNK         0.0731 
     81 H81        31.9368   -4.5254   -2.4895 H         1 UNK         0.1312 
     82 H82        30.9629   -1.2218   -5.0227 H         1 UNK         0.1406 
     83 H83        31.5938   -0.5944   -0.8179 H         1 UNK         0.1631 
     84 H84        31.8051    1.3194   -2.8316 H         1 UNK         0.0717 
     85 H85        30.1920    1.0262   -2.2271 H         1 UNK         0.0717 
     86 H86        28.6688   -0.4891   -4.5417 H         1 UNK         0.0934 
     87 H87        27.9959    0.8670   -3.6902 H         1 UNK         0.0934 
     88 H88        28.4645    1.1608   -6.6759 H         1 UNK         0.0739 
     89 H89        26.7309   -0.8929   -5.7172 H         1 UNK         0.3093 
     90 H90        24.8098   -1.1187   -8.7021 H         1 UNK         0.0818 
     91 H91        25.8799   -3.3410   -9.0568 H         1 UNK         0.0819 
     92 H92        26.9668   -2.0666   -9.5738 H         1 UNK         0.0819 
     93 H93        27.2445   -2.8702   -8.0408 H         1 UNK         0.0819 
     94 H94        25.1909   -3.0346   -6.6601 H         1 UNK         0.3041 
     95 H95        23.4183   -1.5904   -4.0048 H         1 UNK         0.0784 
     96 H96        21.5255   -2.4085   -5.4279 H         1 UNK         0.0793 
     97 H97        22.4498   -3.8434   -5.8497 H         1 UNK         0.0793 
     98 H98        21.9405   -3.5725   -4.1821 H         1 UNK         0.0793 
     99 H99        24.3619   -4.2081   -4.2255 H         1 UNK         0.3024 
    100 H100       26.2162   -4.8238   -3.0464 H         1 UNK         0.1171 
    101 H101       28.2277   -3.7838   -5.1330 H         1 UNK         0.0786 
    102 H102       28.2908   -5.3651   -4.3515 H         1 UNK         0.0786 
    103 H103       26.9661   -4.9711   -5.4319 H         1 UNK         0.0786 
    104 H104       28.6583   -3.2516   -2.7772 H         1 UNK         0.2977 
    105 H105       25.1566    1.2557   -5.6426 H         1 UNK         0.3127 
    106 H106       25.0198    4.0511   -4.9432 H         1 UNK         0.0770 
    107 H107       22.8433    2.1909   -6.0414 H         1 UNK         0.0814 
    108 H108       22.5876    3.7385   -5.2520 H         1 UNK         0.0814 
    109 H109       23.2395    2.3902   -4.3339 H         1 UNK         0.0814 
    110 H110       25.2913    2.3224   -7.9819 H         1 UNK         0.2983 
    111 H111       24.7939    4.7895   -9.5881 H         1 UNK         0.0947 
    112 H112       25.0823    1.8583  -10.4530 H         1 UNK         0.0806 
    113 H113       24.6970    3.2181  -11.4979 H         1 UNK         0.0806 
    114 H114       23.5495    2.7114  -10.2706 H         1 UNK         0.0806 
    115 H115       27.2319    3.5997   -7.8477 H         1 UNK         0.3000 
    116 H116       29.4224    3.5608   -7.7928 H         1 UNK         0.0850 
    117 H117       29.1956    5.9691   -8.4529 H         1 UNK         0.0810 
    118 H118       29.3904    5.5202  -10.1474 H         1 UNK         0.0810 
    119 H119       30.7060    5.2713   -9.0102 H         1 UNK         0.0810 
    120 H120       28.1576    1.4409   -9.2871 H         1 UNK         0.3040 
    121 H121       30.2692    0.6765  -11.2607 H         1 UNK         0.0766 
    122 H122       28.4941   -0.9505  -12.0422 H         1 UNK         0.0812 
    123 H123       28.0041    0.7250  -12.2290 H         1 UNK         0.0812 
    124 H124       27.3589   -0.2324  -10.9055 H         1 UNK         0.0812 
    125 H125       30.8746   -1.5438  -11.2187 H         1 UNK         0.3205 
    126 H126       31.6854   -3.4183  -10.4366 H         1 UNK         0.0754 
    127 H127       30.6329   -4.6778   -8.5907 H         1 UNK         0.0769 
    128 H128       29.3826   -3.9768   -9.6036 H         1 UNK         0.0769 
    129 H129       29.7701   -3.2528   -8.0454 H         1 UNK         0.0769 
    130 H130       33.0787   -4.4171   -8.8188 H         1 UNK         0.2981 
    131 H131       34.8842   -4.4568   -7.5813 H         1 UNK         0.0541 
    132 H132       36.3768   -1.4839   -9.4733 H         1 UNK         0.3459 
    133 H133       34.9510   -2.4114   -9.8677 H         1 UNK         0.3459 
    134 H134       34.9042   -3.2872   -5.3544 H         1 UNK         0.0612 
    135 H135       33.5045   -2.3650   -5.8295 H         1 UNK         0.0612 
    136 H136       30.6516   -4.6707   -4.8981 H         1 UNK         0.0624 
    137 H137       31.0778   -3.3654   -5.9787 H         1 UNK         0.0624 
@<TRIPOS>BOND
     1    1    2 1    
     2    1   72 1    
     3    1   73 1    
     4    1   74 1    
     5    2    3 2    
     6    2    4 am   BACKBONE|DICT|INTERRES
     7    4    5 1    
     8    4   75 1    
     9    5    6 1    
    10    5   35 1    
    11    5   76 1    
    12    6    7 1    
    13    6   77 1    
    14    6   78 1    
    15    7    8 1    
    16    8    9 1    
    17    8   79 1    
    18    8   80 1    
    19    9   10 ar   
    20    9   14 ar   
    21   10   11 ar   
    22   10   81 1    
    23   11   12 ar   
    24   11   71 1    
    25   12   13 ar   
    26   12   82 1    
    27   13   14 ar   
    28   13   15 1    
    29   14   83 1    
    30   15   16 1    
    31   15   84 1    
    32   15   85 1    
    33   16   17 1    
    34   17   18 1    
    35   17   86 1    
    36   17   87 1    
    37   18   19 1    
    38   18   37 1    
    39   18   88 1    
    40   19   20 am   BACKBONE|DICT|INTERRES
    41   19   89 1    
    42   20   21 2    
    43   20   22 1    
    44   22   23 1    
    45   22   24 1    
    46   22   90 1    
    47   23   91 1    
    48   23   92 1    
    49   23   93 1    
    50   24   25 am   BACKBONE|DICT|INTERRES
    51   24   94 1    
    52   25   26 2    
    53   25   27 1    
    54   27   28 1    
    55   27   29 1    
    56   27   95 1    
    57   28   96 1    
    58   28   97 1    
    59   28   98 1    
    60   29   30 am   BACKBONE|DICT|INTERRES
    61   29   99 1    
    62   30   31 2    
    63   30   32 1    
    64   32   33 1    
    65   32   34 1    
    66   32  100 1    
    67   33  101 1    
    68   33  102 1    
    69   33  103 1    
    70   34   35 am   BACKBONE|DICT|INTERRES
    71   34  104 1    
    72   35   36 2    
    73   37   38 2    
    74   37   39 am   BACKBONE|DICT|INTERRES
    75   39   40 1    
    76   39  105 1    
    77   40   41 1    
    78   40   42 1    
    79   40  106 1    
    80   41  107 1    
    81   41  108 1    
    82   41  109 1    
    83   42   43 2    
    84   42   44 am   BACKBONE|DICT|INTERRES
    85   44   45 1    
    86   44  110 1    
    87   45   46 1    
    88   45   47 1    
    89   45  111 1    
    90   46  112 1    
    91   46  113 1    
    92   46  114 1    
    93   47   48 2    
    94   47   49 am   BACKBONE|DICT|INTERRES
    95   49   50 1    
    96   49  115 1    
    97   50   51 1    
    98   50   52 1    
    99   50  116 1    
   100   51  117 1    
   101   51  118 1    
   102   51  119 1    
   103   52   53 2    
   104   52   54 am   BACKBONE|DICT|INTERRES
   105   54   55 1    
   106   54  120 1    
   107   55   56 1    
   108   55   57 1    
   109   55  121 1    
   110   56  122 1    
   111   56  123 1    
   112   56  124 1    
   113   57   58 2    
   114   57   59 am   BACKBONE|DICT|INTERRES
   115   59   60 1    
   116   59  125 1    
   117   60   61 1    
   118   60   62 1    
   119   60  126 1    
   120   61  127 1    
   121   61  128 1    
   122   61  129 1    
   123   62   63 2    
   124   62   64 am   BACKBONE|DICT|INTERRES
   125   64   65 1    
   126   64  130 1    
   127   65   66 1    
   128   65   69 1    
   129   65  131 1    
   130   66   67 am   BACKBONE|DICT|INTERRES
   131   66   68 2    
   132   67  132 1    
   133   67  133 1    
   134   69   70 1    
   135   69  134 1    
   136   69  135 1    
   137   70   71 1    
   138   71  136 1    
   139   71  137 1    
@<TRIPOS>SUBSTRUCTURE
     1 UNK         1 GROUP             0       ****    0 ROOT    
