@<TRIPOS>MOLECULE
3R137
137   139    1
SMALL
USER_CHARGES


@<TRIPOS>ATOM
      1 CA         26.1786   -3.8276    2.6955 C.3       0 UNK        -0.2020 
      2 C          26.7942   -3.2509    1.4296 C.2       0 UNK         0.4855 
      3 O          27.4558   -2.2148    1.4874 O.2       0 UNK        -0.5197 
      4 N          26.5702   -3.9049    0.2822 N.am      1 UNK        -0.4892 
      5 CA         27.1125   -3.5195   -1.0298 C.3       1 UNK         0.0835 
      6 C6         27.4085   -4.7543   -1.9194 C.3       12 UNK        -0.0855 
      7 S7         28.8863   -5.6314   -1.3061 S.3       12 UNK        -0.2931 
      8 C8         30.0221   -5.5393   -2.7371 C.3       12 UNK         0.0378 
      9 C9         30.3234   -4.1306   -3.2561 C.ar      12 UNK        -0.0802 
     10 C10        30.5131   -3.9458   -4.6285 C.ar      12 UNK        -0.0944 
     11 C11        30.8336   -2.6882   -5.1454 C.ar      12 UNK        -0.0787 
     12 C12        30.9495   -1.5982   -4.2799 C.ar      12 UNK        -0.0862 
     13 C13        30.7476   -1.7558   -2.9034 C.ar      12 UNK        -0.0733 
     14 C14        30.4582   -3.0304   -2.3994 C.ar      12 UNK        -0.0832 
     15 C15        30.8776   -0.5771   -1.9369 C.3       12 UNK         0.0240 
     16 S16        30.2445    1.0185   -2.5731 S.3       12 UNK        -0.2522 
     17 C17        28.4976    0.6307   -2.9257 C.3       12 UNK        -0.0967 
     18 CA         28.1870    0.6966   -4.4469 C.3       5 UNK         0.0660 
     19 N          27.3627   -0.4264   -4.8943 N.am      5 UNK        -0.4015 
     20 C          27.1570   -0.7716   -6.1726 C.2       4 UNK         0.4946 
     21 O          27.5768   -0.1292   -7.1328 O.2       4 UNK        -0.5353 
     22 CA         26.3384   -2.0446   -6.4229 C.3       4 UNK         0.0277 
     23 CB         27.2122   -3.2947   -6.2309 C.3       4 UNK        -0.1981 
     24 N          25.1846   -2.1092   -5.5270 N.am      4 UNK        -0.4209 
     25 C          23.9810   -1.5935   -5.8090 C.2       3 UNK         0.4942 
     26 O          23.6908   -1.0780   -6.8891 O.2       3 UNK        -0.5208 
     27 CA         22.9160   -1.6505   -4.6974 C.3       3 UNK         0.0250 
     28 CB         22.0856   -2.9388   -4.8149 C.3       3 UNK        -0.1990 
     29 N          23.4594   -1.5461   -3.3389 N.am      3 UNK        -0.4232 
     30 C          24.1200   -0.4816   -2.8636 C.2       2 UNK         0.4993 
     31 O          24.3783    0.5221   -3.5264 O.2       2 UNK        -0.5286 
     32 CA         24.6337   -0.5700   -1.4187 C.3       2 UNK         0.0209 
     33 CB         23.4953   -0.2963   -0.4225 C.3       2 UNK        -0.1931 
     34 N          25.3152   -1.8199   -1.0533 N.am      2 UNK        -0.4546 
     35 C          26.2696   -2.4504   -1.7552 C.2       1 UNK         0.5154 
     36 O          26.5301   -2.1893   -2.9294 O.2       1 UNK        -0.5181 
     37 C          27.6160    2.0650   -4.8678 C.2       5 UNK         0.5014 
     38 O          28.3809    2.9177   -5.3196 O.2       5 UNK        -0.5248 
     39 N          26.2894    2.2489   -4.7643 N.am      6 UNK        -0.4434 
     40 CA         25.5976    3.4715   -5.1940 C.3       6 UNK         0.0363 
     41 CB         24.1551    3.4676   -4.6646 C.3       6 UNK        -0.1936 
     42 C          25.6052    3.6686   -6.7204 C.2       6 UNK         0.5081 
     43 O          25.5764    4.8089   -7.1832 O.2       6 UNK        -0.5248 
     44 N          25.6636    2.5618   -7.4723 N.am      7 UNK        -0.4718 
     45 CA         25.8053    2.5489   -8.9299 C.3       7 UNK         0.0273 
     46 CB         25.1830    1.2503   -9.4709 C.3       7 UNK        -0.1935 
     47 C          27.2715    2.6722   -9.3874 C.2       7 UNK         0.5018 
     48 O          27.5093    2.8170  -10.5878 O.2       7 UNK        -0.5186 
     49 N          28.2225    2.5696   -8.4462 N.am      8 UNK        -0.4240 
     50 CA         29.6826    2.5014   -8.5891 C.3       8 UNK         0.0235 
     51 CB         30.2589    3.7647   -9.2566 C.3       8 UNK        -0.2000 
     52 C          30.1804    1.2214   -9.2818 C.2       8 UNK         0.4941 
     53 O          31.0931    0.5777   -8.7637 O.2       8 UNK        -0.5273 
     54 N          29.5796    0.8730  -10.4284 N.am      9 UNK        -0.4262 
     55 CA         29.8822   -0.2850  -11.2736 C.3       9 UNK         0.0264 
     56 CB         29.4066   -1.5828  -10.5773 C.3       9 UNK        -0.1955 
     57 C          31.3653   -0.2918  -11.6993 C.2       9 UNK         0.5031 
     58 O          31.8650    0.7377  -12.1589 O.2       9 UNK        -0.5390 
     59 N          32.0484   -1.4281  -11.5207 N.am      10 UNK        -0.4204 
     60 CA         33.4912   -1.5734  -11.7247 C.3       10 UNK         0.0237 
     61 CB         33.7888   -3.0389  -12.0879 C.3       10 UNK        -0.1985 
     62 C          34.3221   -1.1419  -10.4988 C.2       10 UNK         0.4970 
     63 O          35.5504   -1.1302  -10.5941 O.2       10 UNK        -0.4914 
     64 N          33.6670   -0.8318   -9.3715 N.am      11 UNK        -0.4285 
     65 CA         34.3102   -0.5293   -8.0828 C.3       11 UNK         0.1007 
     66 C          34.7652    0.9505   -7.9327 C.2       11 UNK         0.5703 
     67 N          34.4117    1.8524   -8.8415 N.am      11 UNK        -0.7361 
     68 O          35.4677    1.2829   -6.9809 O.2       11 UNK        -0.4986 
     69 C69        33.4381   -0.9767   -6.8766 C.3       12 UNK        -0.0947 
     70 S70        32.8396   -2.6969   -7.0349 S.3       12 UNK        -0.2240 
     71 C71        31.0721   -2.5200   -6.6378 C.3       12 UNK         0.0194 
     72 H72        26.9601   -4.0659    3.4164 H         1 UNK         0.0906 
     73 H73        25.5054   -3.1016    3.1507 H         1 UNK         0.0906 
     74 H74        25.6125   -4.7375    2.4970 H         1 UNK         0.0906 
     75 H75        26.0167   -4.7507    0.2937 H         1 UNK         0.3140 
     76 H76        28.0622   -3.0103   -0.8593 H         1 UNK         0.1085 
     77 H77        27.5812   -4.4768   -2.9605 H         1 UNK         0.0836 
     78 H78        26.5594   -5.4394   -1.9324 H         1 UNK         0.0836 
     79 H79        29.5988   -6.1498   -3.5365 H         1 UNK         0.0731 
     80 H80        30.9653   -6.0115   -2.4598 H         1 UNK         0.0731 
     81 H81        30.4313   -4.7897   -5.3000 H         1 UNK         0.1312 
     82 H82        31.2078   -0.6285   -4.6810 H         1 UNK         0.1406 
     83 H83        30.3445   -3.1690   -1.3334 H         1 UNK         0.1631 
     84 H84        31.9313   -0.4546   -1.6835 H         1 UNK         0.0717 
     85 H85        30.3600   -0.7969   -1.0016 H         1 UNK         0.0717 
     86 H86        28.2988   -0.3647   -2.5316 H         1 UNK         0.0934 
     87 H87        27.8575    1.2975   -2.3442 H         1 UNK         0.0934 
     88 H88        29.1246    0.5852   -4.9958 H         1 UNK         0.0739 
     89 H89        26.9988   -1.0387   -4.1656 H         1 UNK         0.3093 
     90 H90        25.9980   -2.0284   -7.4607 H         1 UNK         0.0818 
     91 H91        27.6195   -3.3567   -5.2211 H         1 UNK         0.0819 
     92 H92        26.6471   -4.2071   -6.4211 H         1 UNK         0.0819 
     93 H93        28.0553   -3.2861   -6.9222 H         1 UNK         0.0819 
     94 H94        25.3595   -2.4487   -4.5879 H         1 UNK         0.3041 
     95 H95        22.2482   -0.7994   -4.8478 H         1 UNK         0.0784 
     96 H96        21.6475   -3.0310   -5.8098 H         1 UNK         0.0793 
     97 H97        22.6930   -3.8283   -4.6426 H         1 UNK         0.0793 
     98 H98        21.2632   -2.9484   -4.0993 H         1 UNK         0.0793 
     99 H99        23.3197   -2.3354   -2.7248 H         1 UNK         0.3024 
    100 H100       25.3720    0.2268   -1.3059 H         1 UNK         0.1171 
    101 H101       23.8735   -0.1971    0.5952 H         1 UNK         0.0786 
    102 H102       22.9781    0.6337   -0.6641 H         1 UNK         0.0786 
    103 H103       22.7519   -1.0943   -0.4278 H         1 UNK         0.0786 
    104 H104       25.1851   -2.1306   -0.1014 H         1 UNK         0.2977 
    105 H105       25.7031    1.5133   -4.3707 H         1 UNK         0.3127 
    106 H106       26.1181    4.3237   -4.7514 H         1 UNK         0.0770 
    107 H107       23.5772    2.6391   -5.0766 H         1 UNK         0.0814 
    108 H108       23.6384    4.3904   -4.9315 H         1 UNK         0.0814 
    109 H109       24.1308    3.3850   -3.5779 H         1 UNK         0.0814 
    110 H110       25.6981    1.6642   -7.0085 H         1 UNK         0.2983 
    111 H111       25.2586    3.3943   -9.3536 H         1 UNK         0.0947 
    112 H112       25.2210    1.2216  -10.5607 H         1 UNK         0.0806 
    113 H113       24.1357    1.1601   -9.1813 H         1 UNK         0.0806 
    114 H114       25.7075    0.3672   -9.1035 H         1 UNK         0.0806 
    115 H115       27.8987    2.4137   -7.4998 H         1 UNK         0.3000 
    116 H116       30.0686    2.4678   -7.5689 H         1 UNK         0.0850 
    117 H117       31.3494    3.7346   -9.2610 H         1 UNK         0.0810 
    118 H118       29.9609    4.6657   -8.7204 H         1 UNK         0.0810 
    119 H119       29.9355    3.8673  -10.2926 H         1 UNK         0.0810 
    120 H120       28.8548    1.5011  -10.7668 H         1 UNK         0.3040 
    121 H121       29.3005   -0.1620  -12.1881 H         1 UNK         0.0766 
    122 H122       28.3543   -1.5097  -10.3009 H         1 UNK         0.0812 
    123 H123       29.9647   -1.7894   -9.6629 H         1 UNK         0.0812 
    124 H124       29.4994   -2.4478  -11.2351 H         1 UNK         0.0812 
    125 H125       31.5622   -2.2248  -11.1348 H         1 UNK         0.3205 
    126 H126       33.8011   -0.9467  -12.5638 H         1 UNK         0.0754 
    127 H127       34.8496   -3.1834  -12.2981 H         1 UNK         0.0769 
    128 H128       33.2409   -3.3463  -12.9789 H         1 UNK         0.0769 
    129 H129       33.5223   -3.7185  -11.2772 H         1 UNK         0.0769 
    130 H130       32.6566   -0.7669   -9.3709 H         1 UNK         0.2981 
    131 H131       35.2278   -1.1185   -8.0316 H         1 UNK         0.0541 
    132 H132       34.7187    2.8064   -8.7395 H         1 UNK         0.3459 
    133 H133       33.8199    1.5864   -9.6125 H         1 UNK         0.3459 
    134 H134       32.5894   -0.3024   -6.7565 H         1 UNK         0.0612 
    135 H135       34.0086   -0.9081   -5.9489 H         1 UNK         0.0612 
    136 H136       30.6867   -1.5601   -6.9853 H         1 UNK         0.0624 
    137 H137       30.5197   -3.2812   -7.1901 H         1 UNK         0.0624 
@<TRIPOS>BOND
     1    1    2 1    
     2    1   72 1    
     3    1   73 1    
     4    1   74 1    
     5    2    3 2    
     6    2    4 am   BACKBONE|DICT|INTERRES
     7    4    5 1    
     8    4   75 1    
     9    5    6 1    
    10    5   35 1    
    11    5   76 1    
    12    6    7 1    
    13    6   77 1    
    14    6   78 1    
    15    7    8 1    
    16    8    9 1    
    17    8   79 1    
    18    8   80 1    
    19    9   10 ar   
    20    9   14 ar   
    21   10   11 ar   
    22   10   81 1    
    23   11   12 ar   
    24   11   71 1    
    25   12   13 ar   
    26   12   82 1    
    27   13   14 ar   
    28   13   15 1    
    29   14   83 1    
    30   15   16 1    
    31   15   84 1    
    32   15   85 1    
    33   16   17 1    
    34   17   18 1    
    35   17   86 1    
    36   17   87 1    
    37   18   19 1    
    38   18   37 1    
    39   18   88 1    
    40   19   20 am   BACKBONE|DICT|INTERRES
    41   19   89 1    
    42   20   21 2    
    43   20   22 1    
    44   22   23 1    
    45   22   24 1    
    46   22   90 1    
    47   23   91 1    
    48   23   92 1    
    49   23   93 1    
    50   24   25 am   BACKBONE|DICT|INTERRES
    51   24   94 1    
    52   25   26 2    
    53   25   27 1    
    54   27   28 1    
    55   27   29 1    
    56   27   95 1    
    57   28   96 1    
    58   28   97 1    
    59   28   98 1    
    60   29   30 am   BACKBONE|DICT|INTERRES
    61   29   99 1    
    62   30   31 2    
    63   30   32 1    
    64   32   33 1    
    65   32   34 1    
    66   32  100 1    
    67   33  101 1    
    68   33  102 1    
    69   33  103 1    
    70   34   35 am   BACKBONE|DICT|INTERRES
    71   34  104 1    
    72   35   36 2    
    73   37   38 2    
    74   37   39 am   BACKBONE|DICT|INTERRES
    75   39   40 1    
    76   39  105 1    
    77   40   41 1    
    78   40   42 1    
    79   40  106 1    
    80   41  107 1    
    81   41  108 1    
    82   41  109 1    
    83   42   43 2    
    84   42   44 am   BACKBONE|DICT|INTERRES
    85   44   45 1    
    86   44  110 1    
    87   45   46 1    
    88   45   47 1    
    89   45  111 1    
    90   46  112 1    
    91   46  113 1    
    92   46  114 1    
    93   47   48 2    
    94   47   49 am   BACKBONE|DICT|INTERRES
    95   49   50 1    
    96   49  115 1    
    97   50   51 1    
    98   50   52 1    
    99   50  116 1    
   100   51  117 1    
   101   51  118 1    
   102   51  119 1    
   103   52   53 2    
   104   52   54 am   BACKBONE|DICT|INTERRES
   105   54   55 1    
   106   54  120 1    
   107   55   56 1    
   108   55   57 1    
   109   55  121 1    
   110   56  122 1    
   111   56  123 1    
   112   56  124 1    
   113   57   58 2    
   114   57   59 am   BACKBONE|DICT|INTERRES
   115   59   60 1    
   116   59  125 1    
   117   60   61 1    
   118   60   62 1    
   119   60  126 1    
   120   61  127 1    
   121   61  128 1    
   122   61  129 1    
   123   62   63 2    
   124   62   64 am   BACKBONE|DICT|INTERRES
   125   64   65 1    
   126   64  130 1    
   127   65   66 1    
   128   65   69 1    
   129   65  131 1    
   130   66   67 am   BACKBONE|DICT|INTERRES
   131   66   68 2    
   132   67  132 1    
   133   67  133 1    
   134   69   70 1    
   135   69  134 1    
   136   69  135 1    
   137   70   71 1    
   138   71  136 1    
   139   71  137 1    
@<TRIPOS>SUBSTRUCTURE
     1 UNK         1 GROUP             0       ****    0 ROOT    
