@<TRIPOS>MOLECULE
3R137
137   139    1
SMALL
USER_CHARGES


@<TRIPOS>ATOM
      1 CA         27.6445   -6.6111   -5.9812 C.3       0 UNK        -0.2020 
      2 C          27.1539   -6.3980   -4.5569 C.2       0 UNK         0.4855 
      3 O          26.5740   -7.3087   -3.9647 O.2       0 UNK        -0.5197 
      4 N          27.3799   -5.2036   -4.0039 N.am      1 UNK        -0.4892 
      5 CA         26.9994   -4.8066   -2.6498 C.3       1 UNK         0.0835 
      6 C6         28.0374   -5.2478   -1.5824 C.3       12 UNK        -0.0855 
      7 S7         29.7490   -4.7046   -1.9317 S.3       12 UNK        -0.2931 
      8 C8         30.0410   -3.4430   -0.6472 C.3       12 UNK         0.0378 
      9 C9         30.7185   -2.2022   -1.2153 C.ar      12 UNK        -0.0802 
     10 C10        31.9335   -2.3071   -1.9013 C.ar      12 UNK        -0.0944 
     11 C11        32.5499   -1.1722   -2.4359 C.ar      12 UNK        -0.0787 
     12 C12        31.9591    0.0813   -2.2547 C.ar      12 UNK        -0.0862 
     13 C13        30.7469    0.2011   -1.5685 C.ar      12 UNK        -0.0733 
     14 C14        30.1319   -0.9434   -1.0503 C.ar      12 UNK        -0.0832 
     15 C15        30.0969    1.5669   -1.3971 C.3       12 UNK         0.0240 
     16 S16        29.4871    2.2408   -2.9757 S.3       12 UNK        -0.2522 
     17 C17        28.1643    1.0595   -3.4002 C.3       12 UNK        -0.0967 
     18 CA         27.8136    1.0952   -4.9077 C.3       5 UNK         0.0660 
     19 N          27.2296   -0.1688   -5.3637 N.am      5 UNK        -0.4015 
     20 C          26.9693   -0.4753   -6.6431 C.2       4 UNK         0.4946 
     21 O          27.2879    0.2327   -7.5983 O.2       4 UNK        -0.5353 
     22 CA         26.1707   -1.7644   -6.8960 C.3       4 UNK         0.0277 
     23 CB         27.1001   -2.9843   -6.9898 C.3       4 UNK        -0.1981 
     24 N          25.1554   -1.9847   -5.8622 N.am      4 UNK        -0.4209 
     25 C          24.0377   -1.2525   -5.7414 C.2       3 UNK         0.4942 
     26 O          23.7204   -0.3594   -6.5253 O.2       3 UNK        -0.5208 
     27 CA         23.1451   -1.5321   -4.5193 C.3       3 UNK         0.0250 
     28 CB         22.1963   -2.7080   -4.8001 C.3       3 UNK        -0.1990 
     29 N          23.9129   -1.7989   -3.2997 N.am      3 UNK        -0.4232 
     30 C          24.7119   -0.9075   -2.6944 C.2       2 UNK         0.4993 
     31 O          24.8387    0.2574   -3.0675 O.2       2 UNK        -0.5286 
     32 CA         25.5618   -1.4135   -1.5146 C.3       2 UNK         0.0209 
     33 CB         24.8151   -1.2168   -0.1864 C.3       2 UNK        -0.1931 
     34 N          25.9764   -2.8164   -1.6454 N.am      2 UNK        -0.4546 
     35 C          26.7278   -3.2923   -2.6486 C.2       1 UNK         0.5154 
     36 O          27.1583   -2.5852   -3.5666 O.2       1 UNK        -0.5181 
     37 C          26.9131    2.2975   -5.2658 C.2       5 UNK         0.5014 
     38 O          27.4010    3.2670   -5.8470 O.2       5 UNK        -0.5248 
     39 N          25.6078    2.1914   -4.9715 N.am      6 UNK        -0.4434 
     40 CA         24.5818    3.1787   -5.3265 C.3       6 UNK         0.0363 
     41 CB         23.2430    2.7829   -4.6845 C.3       6 UNK        -0.1936 
     42 C          24.4189    3.3749   -6.8454 C.2       6 UNK         0.5081 
     43 O          24.1891    4.5004   -7.2879 O.2       6 UNK        -0.5248 
     44 N          24.5797    2.2920   -7.6185 N.am      7 UNK        -0.4718 
     45 CA         24.6161    2.3010   -9.0851 C.3       7 UNK         0.0273 
     46 CB         24.3341    0.8797   -9.6001 C.3       7 UNK        -0.1935 
     47 C          25.9380    2.8377   -9.6745 C.2       7 UNK         0.5018 
     48 O          26.0188    2.9951  -10.8936 O.2       7 UNK        -0.5186 
     49 N          26.9376    3.1030   -8.8194 N.am      8 UNK        -0.4240 
     50 CA         28.2825    3.5962   -9.1291 C.3       8 UNK         0.0235 
     51 CB         28.2288    5.0141   -9.7389 C.3       8 UNK        -0.2000 
     52 C          29.1204    2.6056   -9.9594 C.2       8 UNK         0.4941 
     53 O          29.8716    3.0289  -10.8415 O.2       8 UNK        -0.5273 
     54 N          28.9996    1.3048   -9.6571 N.am      9 UNK        -0.4262 
     55 CA         29.8517    0.2536  -10.2172 C.3       9 UNK         0.0264 
     56 CB         29.2262   -1.1182   -9.9210 C.3       9 UNK        -0.1955 
     57 C          31.2723    0.3296   -9.6304 C.2       9 UNK         0.5031 
     58 O          31.4311    0.6640   -8.4531 O.2       9 UNK        -0.5390 
     59 N          32.2767   -0.0011  -10.4505 N.am      10 UNK        -0.4204 
     60 CA         33.6809   -0.0507  -10.0431 C.3       10 UNK         0.0237 
     61 CB         34.5794    0.0223  -11.2894 C.3       10 UNK        -0.1985 
     62 C          33.9656   -1.3283   -9.2387 C.2       10 UNK         0.4970 
     63 O          33.6773   -2.4245   -9.7251 O.2       10 UNK        -0.4914 
     64 N          34.5349   -1.1635   -8.0410 N.am      11 UNK        -0.4285 
     65 CA         34.9905   -2.2612   -7.1764 C.3       11 UNK         0.1007 
     66 C          36.3287   -2.8716   -7.6740 C.2       11 UNK         0.5703 
     67 N          36.5612   -4.1506   -7.4119 N.am      11 UNK        -0.7361 
     68 O          37.1701   -2.1928   -8.2614 O.2       11 UNK        -0.4986 
     69 C69        35.0985   -1.8079   -5.6974 C.3       12 UNK        -0.0947 
     70 S70        33.4702   -1.3589   -5.0153 S.3       12 UNK        -0.2240 
     71 C71        33.8357   -1.3059   -3.2356 C.3       12 UNK         0.0194 
     72 H72        28.2740   -5.7897   -6.3225 H         1 UNK         0.0906 
     73 H73        28.2287   -7.5289   -6.0433 H         1 UNK         0.0906 
     74 H74        26.7977   -6.6992   -6.6612 H         1 UNK         0.0906 
     75 H75        27.8390   -4.4638   -4.5197 H         1 UNK         0.3140 
     76 H76        26.0462   -5.2860   -2.4143 H         1 UNK         0.1085 
     77 H77        27.7298   -4.9304   -0.5849 H         1 UNK         0.0836 
     78 H78        28.0518   -6.3379   -1.5370 H         1 UNK         0.0836 
     79 H79        30.6703   -3.8704    0.1346 H         1 UNK         0.0731 
     80 H80        29.0999   -3.1694   -0.1687 H         1 UNK         0.0731 
     81 H81        32.3862   -3.2795   -2.0404 H         1 UNK         0.1312 
     82 H82        32.4284    0.9620   -2.6720 H         1 UNK         0.1406 
     83 H83        29.1921   -0.8535   -0.5225 H         1 UNK         0.1631 
     84 H84        30.8273    2.2599   -0.9772 H         1 UNK         0.0717 
     85 H85        29.2718    1.5229   -0.6844 H         1 UNK         0.0717 
     86 H86        28.5069    0.0583   -3.1365 H         1 UNK         0.0934 
     87 H87        27.2936    1.2549   -2.7722 H         1 UNK         0.0934 
     88 H88        28.7435    1.2095   -5.4700 H         1 UNK         0.0739 
     89 H89        26.9906   -0.8488   -4.6503 H         1 UNK         0.3093 
     90 H90        25.6580   -1.6596   -7.8543 H         1 UNK         0.0818 
     91 H91        27.7353   -3.0822   -6.1100 H         1 UNK         0.0819 
     92 H92        26.5330   -3.9078   -7.1065 H         1 UNK         0.0819 
     93 H93        27.7587   -2.9029   -7.8542 H         1 UNK         0.0819 
     94 H94        25.3707   -2.6663   -5.1490 H         1 UNK         0.3041 
     95 H95        22.5399   -0.6402   -4.3432 H         1 UNK         0.0784 
     96 H96        21.6005   -2.5218   -5.6950 H         1 UNK         0.0793 
     97 H97        22.7394   -3.6406   -4.9586 H         1 UNK         0.0793 
     98 H98        21.4990   -2.8606   -3.9760 H         1 UNK         0.0793 
     99 H99        23.8570   -2.7308   -2.9160 H         1 UNK         0.3024 
    100 H100       26.4679   -0.8047   -1.4887 H         1 UNK         0.1171 
    101 H101       24.5158   -0.1754   -0.0582 H         1 UNK         0.0786 
    102 H102       25.4440   -1.4772    0.6652 H         1 UNK         0.0786 
    103 H103       23.9106   -1.8243   -0.1355 H         1 UNK         0.0786 
    104 H104       25.6541   -3.4507   -0.9279 H         1 UNK         0.2977 
    105 H105       25.2942    1.3870   -4.4295 H         1 UNK         0.3127 
    106 H106       24.8918    4.1368   -4.9042 H         1 UNK         0.0770 
    107 H107       22.8858    1.8228   -5.0574 H         1 UNK         0.0814 
    108 H108       22.4725    3.5242   -4.9000 H         1 UNK         0.0814 
    109 H109       23.3290    2.7092   -3.6002 H         1 UNK         0.0814 
    110 H110       24.6858    1.3885   -7.1690 H         1 UNK         0.2983 
    111 H111       23.8183    2.9558   -9.4421 H         1 UNK         0.0947 
    112 H112       24.2690    0.8630  -10.6887 H         1 UNK         0.0806 
    113 H113       23.3899    0.4955   -9.2136 H         1 UNK         0.0806 
    114 H114       25.1231    0.1855   -9.3118 H         1 UNK         0.0806 
    115 H115       26.7734    2.9183   -7.8360 H         1 UNK         0.3000 
    116 H116       28.7954    3.6777   -8.1697 H         1 UNK         0.0850 
    117 H117       29.2296    5.4382   -9.8293 H         1 UNK         0.0810 
    118 H118       27.6464    5.6918   -9.1146 H         1 UNK         0.0810 
    119 H119       27.7873    5.0114  -10.7358 H         1 UNK         0.0810 
    120 H120       28.3747    1.0264   -8.9018 H         1 UNK         0.3040 
    121 H121       29.8998    0.3902  -11.2997 H         1 UNK         0.0766 
    122 H122       28.1983   -1.1758  -10.2798 H         1 UNK         0.0812 
    123 H123       29.2213   -1.3263   -8.8507 H         1 UNK         0.0812 
    124 H124       29.7880   -1.9180  -10.4050 H         1 UNK         0.0812 
    125 H125       32.0654   -0.3110  -11.3882 H         1 UNK         0.3205 
    126 H126       33.8953    0.8221   -9.4218 H         1 UNK         0.0754 
    127 H127       35.6338    0.0001  -11.0102 H         1 UNK         0.0769 
    128 H128       34.4116    0.9445  -11.8462 H         1 UNK         0.0769 
    129 H129       34.4044   -0.8155  -11.9659 H         1 UNK         0.0769 
    130 H130       34.7472   -0.2316   -7.7183 H         1 UNK         0.2981 
    131 H131       34.2400   -3.0535   -7.2257 H         1 UNK         0.0541 
    132 H132       37.4301   -4.5623   -7.7149 H         1 UNK         0.3459 
    133 H133       35.8842   -4.7145   -6.9217 H         1 UNK         0.3459 
    134 H134       35.5114   -2.6100   -5.0828 H         1 UNK         0.0612 
    135 H135       35.7750   -0.9574   -5.5958 H         1 UNK         0.0612 
    136 H136       34.5014   -0.4675   -3.0252 H         1 UNK         0.0624 
    137 H137       34.3693   -2.2115   -2.9429 H         1 UNK         0.0624 
@<TRIPOS>BOND
     1    1    2 1    
     2    1   72 1    
     3    1   73 1    
     4    1   74 1    
     5    2    3 2    
     6    2    4 am   BACKBONE|DICT|INTERRES
     7    4    5 1    
     8    4   75 1    
     9    5    6 1    
    10    5   35 1    
    11    5   76 1    
    12    6    7 1    
    13    6   77 1    
    14    6   78 1    
    15    7    8 1    
    16    8    9 1    
    17    8   79 1    
    18    8   80 1    
    19    9   10 ar   
    20    9   14 ar   
    21   10   11 ar   
    22   10   81 1    
    23   11   12 ar   
    24   11   71 1    
    25   12   13 ar   
    26   12   82 1    
    27   13   14 ar   
    28   13   15 1    
    29   14   83 1    
    30   15   16 1    
    31   15   84 1    
    32   15   85 1    
    33   16   17 1    
    34   17   18 1    
    35   17   86 1    
    36   17   87 1    
    37   18   19 1    
    38   18   37 1    
    39   18   88 1    
    40   19   20 am   BACKBONE|DICT|INTERRES
    41   19   89 1    
    42   20   21 2    
    43   20   22 1    
    44   22   23 1    
    45   22   24 1    
    46   22   90 1    
    47   23   91 1    
    48   23   92 1    
    49   23   93 1    
    50   24   25 am   BACKBONE|DICT|INTERRES
    51   24   94 1    
    52   25   26 2    
    53   25   27 1    
    54   27   28 1    
    55   27   29 1    
    56   27   95 1    
    57   28   96 1    
    58   28   97 1    
    59   28   98 1    
    60   29   30 am   BACKBONE|DICT|INTERRES
    61   29   99 1    
    62   30   31 2    
    63   30   32 1    
    64   32   33 1    
    65   32   34 1    
    66   32  100 1    
    67   33  101 1    
    68   33  102 1    
    69   33  103 1    
    70   34   35 am   BACKBONE|DICT|INTERRES
    71   34  104 1    
    72   35   36 2    
    73   37   38 2    
    74   37   39 am   BACKBONE|DICT|INTERRES
    75   39   40 1    
    76   39  105 1    
    77   40   41 1    
    78   40   42 1    
    79   40  106 1    
    80   41  107 1    
    81   41  108 1    
    82   41  109 1    
    83   42   43 2    
    84   42   44 am   BACKBONE|DICT|INTERRES
    85   44   45 1    
    86   44  110 1    
    87   45   46 1    
    88   45   47 1    
    89   45  111 1    
    90   46  112 1    
    91   46  113 1    
    92   46  114 1    
    93   47   48 2    
    94   47   49 am   BACKBONE|DICT|INTERRES
    95   49   50 1    
    96   49  115 1    
    97   50   51 1    
    98   50   52 1    
    99   50  116 1    
   100   51  117 1    
   101   51  118 1    
   102   51  119 1    
   103   52   53 2    
   104   52   54 am   BACKBONE|DICT|INTERRES
   105   54   55 1    
   106   54  120 1    
   107   55   56 1    
   108   55   57 1    
   109   55  121 1    
   110   56  122 1    
   111   56  123 1    
   112   56  124 1    
   113   57   58 2    
   114   57   59 am   BACKBONE|DICT|INTERRES
   115   59   60 1    
   116   59  125 1    
   117   60   61 1    
   118   60   62 1    
   119   60  126 1    
   120   61  127 1    
   121   61  128 1    
   122   61  129 1    
   123   62   63 2    
   124   62   64 am   BACKBONE|DICT|INTERRES
   125   64   65 1    
   126   64  130 1    
   127   65   66 1    
   128   65   69 1    
   129   65  131 1    
   130   66   67 am   BACKBONE|DICT|INTERRES
   131   66   68 2    
   132   67  132 1    
   133   67  133 1    
   134   69   70 1    
   135   69  134 1    
   136   69  135 1    
   137   70   71 1    
   138   71  136 1    
   139   71  137 1    
@<TRIPOS>SUBSTRUCTURE
     1 UNK         1 GROUP             0       ****    0 ROOT    
