@<TRIPOS>MOLECULE
3R137
137   139    1
SMALL
USER_CHARGES


@<TRIPOS>ATOM
      1 CA         30.3164    0.9864   -2.2402 C.3       0 UNK        -0.2020 
      2 C          29.6332   -0.3444   -2.5075 C.2       0 UNK         0.4855 
      3 O          29.2500   -0.6213   -3.6414 O.2       0 UNK        -0.5197 
      4 N          29.4694   -1.1647   -1.4619 N.am      1 UNK        -0.4892 
      5 CA         28.7848   -2.4651   -1.5296 C.3       1 UNK         0.0835 
      6 C6         29.2817   -3.4463   -0.4391 C.3       12 UNK        -0.0855 
      7 S7         31.0867   -3.7179   -0.4983 S.3       12 UNK        -0.2931 
      8 C8         31.2094   -5.3047   -1.3849 C.3       12 UNK         0.0378 
      9 C9         30.9363   -5.1546   -2.8755 C.ar      12 UNK        -0.0802 
     10 C10        31.9154   -4.6108   -3.7152 C.ar      12 UNK        -0.0944 
     11 C11        31.6883   -4.4947   -5.0902 C.ar      12 UNK        -0.0787 
     12 C12        30.4751   -4.9377   -5.6218 C.ar      12 UNK        -0.0862 
     13 C13        29.4771   -5.4531   -4.7922 C.ar      12 UNK        -0.0733 
     14 C14        29.7163   -5.5722   -3.4195 C.ar      12 UNK        -0.0832 
     15 C15        28.1347   -5.8508   -5.3905 C.3       12 UNK         0.0240 
     16 S16        26.7880   -4.7313   -4.8842 S.3       12 UNK        -0.2522 
     17 C17        27.4424   -3.0699   -5.2816 C.3       12 UNK        -0.0967 
     18 CA         26.5954   -2.3177   -6.3286 C.3       5 UNK         0.0660 
     19 N          25.2167   -2.1182   -5.8831 N.am      5 UNK        -0.4015 
     20 C          24.1421   -2.1742   -6.6786 C.2       4 UNK         0.4946 
     21 O          24.1881   -2.4350   -7.8816 O.2       4 UNK        -0.5353 
     22 CA         22.7754   -1.8901   -6.0285 C.3       4 UNK         0.0277 
     23 CB         22.1284   -3.1997   -5.5492 C.3       4 UNK        -0.1981 
     24 N          22.8396   -0.9449   -4.9104 N.am      4 UNK        -0.4209 
     25 C          23.1820    0.3457   -5.0248 C.2       3 UNK         0.4942 
     26 O          23.4647    0.8899   -6.0927 O.2       3 UNK        -0.5208 
     27 CA         23.2488    1.1646   -3.7235 C.3       3 UNK         0.0250 
     28 CB         21.8646    1.7452   -3.3909 C.3       3 UNK        -0.1990 
     29 N          23.7762    0.4605   -2.5441 N.am      3 UNK        -0.4232 
     30 C          24.9194   -0.2384   -2.4747 C.2       2 UNK         0.4993 
     31 O          25.6084   -0.5192   -3.4577 O.2       2 UNK        -0.5286 
     32 CA         25.3692   -0.6576   -1.0628 C.3       2 UNK         0.0209 
     33 CB         24.3869   -1.6556   -0.4117 C.3       2 UNK        -0.1931 
     34 N          26.7587   -1.1430   -1.0447 N.am      2 UNK        -0.4546 
     35 C          27.2461   -2.3206   -1.4709 C.2       1 UNK         0.5154 
     36 O          26.5468   -3.2773   -1.8017 O.2       1 UNK        -0.5181 
     37 C          27.2417   -0.9610   -6.6565 C.2       5 UNK         0.5014 
     38 O          27.9200   -0.8480   -7.6780 O.2       5 UNK        -0.5248 
     39 N          26.9988    0.0535   -5.8106 N.am      6 UNK        -0.4434 
     40 CA         27.5573    1.4062   -5.9146 C.3       6 UNK         0.0363 
     41 CB         27.1342    2.2329   -4.6919 C.3       6 UNK        -0.1936 
     42 C          27.1935    2.1402   -7.2158 C.2       6 UNK         0.5081 
     43 O          27.9377    3.0274   -7.6314 O.2       6 UNK        -0.5248 
     44 N          26.1041    1.7193   -7.8741 N.am      7 UNK        -0.4718 
     45 CA         25.7090    2.1239   -9.2265 C.3       7 UNK         0.0273 
     46 CB         24.3887    1.4236   -9.5856 C.3       7 UNK        -0.1935 
     47 C          26.7745    1.8521  -10.3106 C.2       7 UNK         0.5018 
     48 O          26.7629    2.5324  -11.3369 O.2       7 UNK        -0.5186 
     49 N          27.6882    0.8981  -10.0667 N.am      8 UNK        -0.4240 
     50 CA         28.8526    0.6266  -10.9155 C.3       8 UNK         0.0235 
     51 CB         29.3630   -0.7969  -10.6335 C.3       8 UNK        -0.2000 
     52 C          29.9958    1.6457  -10.7369 C.2       8 UNK         0.4941 
     53 O          30.9456    1.6078  -11.5206 O.2       8 UNK        -0.5273 
     54 N          29.9196    2.5094   -9.7106 N.am      9 UNK        -0.4262 
     55 CA         30.8570    3.5714   -9.3143 C.3       9 UNK         0.0264 
     56 CB         31.0174    4.6287  -10.4238 C.3       9 UNK        -0.1955 
     57 C          32.2269    3.0789   -8.8149 C.2       9 UNK         0.5031 
     58 O          32.6945    3.5580   -7.7808 O.2       9 UNK        -0.5390 
     59 N          32.8391    2.1295   -9.5339 N.am      10 UNK        -0.4204 
     60 CA         34.1680    1.5623   -9.2758 C.3       10 UNK         0.0237 
     61 CB         34.5082    0.5579  -10.3887 C.3       10 UNK        -0.1985 
     62 C          34.3300    0.9044   -7.8932 C.2       10 UNK         0.4970 
     63 O          35.4405    0.8945   -7.3605 O.2       10 UNK        -0.4914 
     64 N          33.2300    0.3818   -7.3389 N.am      11 UNK        -0.4285 
     65 CA         33.1632   -0.1909   -5.9861 C.3       11 UNK         0.1007 
     66 C          33.1507    0.8672   -4.8446 C.2       11 UNK         0.5703 
     67 N          32.9974    2.1583   -5.1212 N.am      11 UNK        -0.7361 
     68 O          33.3061    0.5087   -3.6804 O.2       11 UNK        -0.4986 
     69 C69        31.9852   -1.1899   -5.8472 C.3       12 UNK        -0.0947 
     70 S70        32.1112   -2.5551   -7.0506 S.3       12 UNK        -0.2240 
     71 C71        32.7534   -3.9079   -6.0087 C.3       12 UNK         0.0194 
     72 H72        30.5557    1.4881   -3.1776 H         1 UNK         0.0906 
     73 H73        29.6647    1.6415   -1.6630 H         1 UNK         0.0906 
     74 H74        31.2456    0.8417   -1.6894 H         1 UNK         0.0906 
     75 H75        29.8442   -0.9097   -0.5587 H         1 UNK         0.3140 
     76 H76        29.0113   -2.9150   -2.4989 H         1 UNK         0.1085 
     77 H77        28.7739   -4.4087   -0.5287 H         1 UNK         0.0836 
     78 H78        29.0319   -3.0682    0.5541 H         1 UNK         0.0836 
     79 H79        30.5339   -6.0335   -0.9341 H         1 UNK         0.0731 
     80 H80        32.2155   -5.7032   -1.2464 H         1 UNK         0.0731 
     81 H81        32.8548   -4.2796   -3.2938 H         1 UNK         0.1312 
     82 H82        30.2967   -4.8482   -6.6848 H         1 UNK         0.1406 
     83 H83        28.9449   -5.9756   -2.7772 H         1 UNK         0.1631 
     84 H84        27.8869   -6.8665   -5.0794 H         1 UNK         0.0717 
     85 H85        28.1840   -5.8680   -6.4804 H         1 UNK         0.0717 
     86 H86        27.4816   -2.4999   -4.3538 H         1 UNK         0.0934 
     87 H87        28.4735   -3.1388   -5.6269 H         1 UNK         0.0934 
     88 H88        26.6008   -2.9115   -7.2454 H         1 UNK         0.0739 
     89 H89        25.1016   -1.8417   -4.9140 H         1 UNK         0.3093 
     90 H90        22.1341   -1.4522   -6.7967 H         1 UNK         0.0818 
     91 H91        22.0418   -3.9141   -6.3693 H         1 UNK         0.0819 
     92 H92        22.7157   -3.6769   -4.7633 H         1 UNK         0.0819 
     93 H93        21.1231   -3.0295   -5.1634 H         1 UNK         0.0819 
     94 H94        22.6313   -1.3046   -3.9902 H         1 UNK         0.3041 
     95 H95        23.9194    2.0035   -3.9126 H         1 UNK         0.0784 
     96 H96        21.4541    2.2908   -4.2421 H         1 UNK         0.0793 
     97 H97        21.1502    0.9633   -3.1300 H         1 UNK         0.0793 
     98 H98        21.9162    2.4456   -2.5571 H         1 UNK         0.0793 
     99 H99        23.2722    0.6218   -1.6838 H         1 UNK         0.3024 
    100 H100       25.3726    0.2493   -0.4555 H         1 UNK         0.1171 
    101 H101       24.7634   -2.0164    0.5455 H         1 UNK         0.0786 
    102 H102       23.4204   -1.1888   -0.2197 H         1 UNK         0.0786 
    103 H103       24.2011   -2.5221   -1.0472 H         1 UNK         0.0786 
    104 H104       27.4493   -0.4398   -0.8242 H         1 UNK         0.2977 
    105 H105       26.4672   -0.1435   -4.9627 H         1 UNK         0.3127 
    106 H106       28.6443    1.3024   -5.8945 H         1 UNK         0.0770 
    107 H107       26.0564    2.3869   -4.6688 H         1 UNK         0.0814 
    108 H108       27.6050    3.2167   -4.7048 H         1 UNK         0.0814 
    109 H109       27.4267    1.7449   -3.7620 H         1 UNK         0.0814 
    110 H110       25.5276    1.0190   -7.4256 H         1 UNK         0.2983 
    111 H111       25.5365    3.2020   -9.2078 H         1 UNK         0.0947 
    112 H112       24.0471    1.7157  -10.5797 H         1 UNK         0.0806 
    113 H113       23.5973    1.6847   -8.8824 H         1 UNK         0.0806 
    114 H114       24.4947    0.3377   -9.5810 H         1 UNK         0.0806 
    115 H115       27.6320    0.3697   -9.1991 H         1 UNK         0.3000 
    116 H116       28.5375    0.6730  -11.9601 H         1 UNK         0.0850 
    117 H117       30.1669   -1.0671  -11.3197 H         1 UNK         0.0810 
    118 H118       28.5712   -1.5361  -10.7559 H         1 UNK         0.0810 
    119 H119       29.7569   -0.8924   -9.6208 H         1 UNK         0.0810 
    120 H120       29.1028    2.4510   -9.1085 H         1 UNK         0.3040 
    121 H121       30.3833    4.0672   -8.4653 H         1 UNK         0.0766 
    122 H122       31.4948    4.2207  -11.3150 H         1 UNK         0.0812 
    123 H123       31.6330    5.4611  -10.0803 H         1 UNK         0.0812 
    124 H124       30.0523    5.0402  -10.7194 H         1 UNK         0.0812 
    125 H125       32.3503    1.8117  -10.3700 H         1 UNK         0.3205 
    126 H126       34.8841    2.3851   -9.3255 H         1 UNK         0.0754 
    127 H127       35.5035    0.1348  -10.2444 H         1 UNK         0.0769 
    128 H128       34.4991    1.0338  -11.3695 H         1 UNK         0.0769 
    129 H129       33.8002   -0.2718  -10.4120 H         1 UNK         0.0769 
    130 H130       32.3611    0.4262   -7.8482 H         1 UNK         0.2981 
    131 H131       34.0806   -0.7627   -5.8328 H         1 UNK         0.0541 
    132 H132       33.0086    2.8232   -4.3650 H         1 UNK         0.3459 
    133 H133       32.9006    2.4881   -6.0753 H         1 UNK         0.3459 
    134 H134       31.9406   -1.6063   -4.8389 H         1 UNK         0.0612 
    135 H135       31.0314   -0.6822   -6.0043 H         1 UNK         0.0612 
    136 H136       33.6094   -3.5437   -5.4384 H         1 UNK         0.0624 
    137 H137       33.1277   -4.7002   -6.6580 H         1 UNK         0.0624 
@<TRIPOS>BOND
     1    1    2 1    
     2    1   72 1    
     3    1   73 1    
     4    1   74 1    
     5    2    3 2    
     6    2    4 am   BACKBONE|DICT|INTERRES
     7    4    5 1    
     8    4   75 1    
     9    5    6 1    
    10    5   35 1    
    11    5   76 1    
    12    6    7 1    
    13    6   77 1    
    14    6   78 1    
    15    7    8 1    
    16    8    9 1    
    17    8   79 1    
    18    8   80 1    
    19    9   10 ar   
    20    9   14 ar   
    21   10   11 ar   
    22   10   81 1    
    23   11   12 ar   
    24   11   71 1    
    25   12   13 ar   
    26   12   82 1    
    27   13   14 ar   
    28   13   15 1    
    29   14   83 1    
    30   15   16 1    
    31   15   84 1    
    32   15   85 1    
    33   16   17 1    
    34   17   18 1    
    35   17   86 1    
    36   17   87 1    
    37   18   19 1    
    38   18   37 1    
    39   18   88 1    
    40   19   20 am   BACKBONE|DICT|INTERRES
    41   19   89 1    
    42   20   21 2    
    43   20   22 1    
    44   22   23 1    
    45   22   24 1    
    46   22   90 1    
    47   23   91 1    
    48   23   92 1    
    49   23   93 1    
    50   24   25 am   BACKBONE|DICT|INTERRES
    51   24   94 1    
    52   25   26 2    
    53   25   27 1    
    54   27   28 1    
    55   27   29 1    
    56   27   95 1    
    57   28   96 1    
    58   28   97 1    
    59   28   98 1    
    60   29   30 am   BACKBONE|DICT|INTERRES
    61   29   99 1    
    62   30   31 2    
    63   30   32 1    
    64   32   33 1    
    65   32   34 1    
    66   32  100 1    
    67   33  101 1    
    68   33  102 1    
    69   33  103 1    
    70   34   35 am   BACKBONE|DICT|INTERRES
    71   34  104 1    
    72   35   36 2    
    73   37   38 2    
    74   37   39 am   BACKBONE|DICT|INTERRES
    75   39   40 1    
    76   39  105 1    
    77   40   41 1    
    78   40   42 1    
    79   40  106 1    
    80   41  107 1    
    81   41  108 1    
    82   41  109 1    
    83   42   43 2    
    84   42   44 am   BACKBONE|DICT|INTERRES
    85   44   45 1    
    86   44  110 1    
    87   45   46 1    
    88   45   47 1    
    89   45  111 1    
    90   46  112 1    
    91   46  113 1    
    92   46  114 1    
    93   47   48 2    
    94   47   49 am   BACKBONE|DICT|INTERRES
    95   49   50 1    
    96   49  115 1    
    97   50   51 1    
    98   50   52 1    
    99   50  116 1    
   100   51  117 1    
   101   51  118 1    
   102   51  119 1    
   103   52   53 2    
   104   52   54 am   BACKBONE|DICT|INTERRES
   105   54   55 1    
   106   54  120 1    
   107   55   56 1    
   108   55   57 1    
   109   55  121 1    
   110   56  122 1    
   111   56  123 1    
   112   56  124 1    
   113   57   58 2    
   114   57   59 am   BACKBONE|DICT|INTERRES
   115   59   60 1    
   116   59  125 1    
   117   60   61 1    
   118   60   62 1    
   119   60  126 1    
   120   61  127 1    
   121   61  128 1    
   122   61  129 1    
   123   62   63 2    
   124   62   64 am   BACKBONE|DICT|INTERRES
   125   64   65 1    
   126   64  130 1    
   127   65   66 1    
   128   65   69 1    
   129   65  131 1    
   130   66   67 am   BACKBONE|DICT|INTERRES
   131   66   68 2    
   132   67  132 1    
   133   67  133 1    
   134   69   70 1    
   135   69  134 1    
   136   69  135 1    
   137   70   71 1    
   138   71  136 1    
   139   71  137 1    
@<TRIPOS>SUBSTRUCTURE
     1 UNK         1 GROUP             0       ****    0 ROOT    
