@<TRIPOS>MOLECULE
3R137
137   139    1
SMALL
USER_CHARGES


@<TRIPOS>ATOM
      1 CA         27.9062   -6.6526    1.3631 C.3       0 UNK        -0.2020 
      2 C          27.5856   -5.3271    0.6886 C.2       0 UNK         0.4855 
      3 O          27.8753   -5.1741   -0.4978 O.2       0 UNK        -0.5197 
      4 N          26.9832   -4.3949    1.4447 N.am      1 UNK        -0.4892 
      5 CA         26.5532   -3.0152    1.1361 C.3       1 UNK         0.0835 
      6 C6         27.6812   -1.9414    1.1730 C.3       12 UNK        -0.0855 
      7 S7         29.1263   -2.2306    0.0976 S.3       12 UNK        -0.2931 
      8 C8         28.7336   -1.2050   -1.3504 C.3       12 UNK         0.0378 
      9 C9         29.6765   -1.5294   -2.4971 C.ar      12 UNK        -0.0802 
     10 C10        30.7933   -0.7274   -2.7466 C.ar      12 UNK        -0.0944 
     11 C11        31.6695   -1.0425   -3.7888 C.ar      12 UNK        -0.0787 
     12 C12        31.4193   -2.1620   -4.5895 C.ar      12 UNK        -0.0862 
     13 C13        30.3085   -2.9747   -4.3456 C.ar      12 UNK        -0.0733 
     14 C14        29.4405   -2.6510   -3.2973 C.ar      12 UNK        -0.0832 
     15 C15        30.0763   -4.2273   -5.1824 C.3       12 UNK         0.0240 
     16 S16        29.3753   -3.8651   -6.8252 S.3       12 UNK        -0.2522 
     17 C17        27.6970   -3.3062   -6.3912 C.3       12 UNK        -0.0967 
     18 CA         27.1786   -2.0940   -7.2040 C.3       5 UNK         0.0660 
     19 N          25.7875   -1.8033   -6.8458 N.am      5 UNK        -0.4015 
     20 C          24.9440   -1.0563   -7.5712 C.2       4 UNK         0.4946 
     21 O          25.2377   -0.5493   -8.6518 O.2       4 UNK        -0.5353 
     22 CA         23.5413   -0.8107   -6.9855 C.3       4 UNK         0.0277 
     23 CB         22.5789   -1.9311   -7.4105 C.3       4 UNK        -0.1981 
     24 N          23.5341   -0.6873   -5.5255 N.am      4 UNK        -0.4209 
     25 C          24.1369    0.2971   -4.8433 C.2       3 UNK         0.4942 
     26 O          24.7203    1.2380   -5.3766 O.2       3 UNK        -0.5208 
     27 CA         24.1399    0.1909   -3.3090 C.3       3 UNK         0.0250 
     28 CB         22.9176    0.9095   -2.7170 C.3       3 UNK        -0.1990 
     29 N          24.1942   -1.1848   -2.8017 N.am      3 UNK        -0.4232 
     30 C          25.1549   -2.0738   -3.0874 C.2       2 UNK         0.4993 
     31 O          26.0948   -1.8383   -3.8495 O.2       2 UNK        -0.5286 
     32 CA         25.0425   -3.4524   -2.4148 C.3       2 UNK         0.0209 
     33 CB         25.5003   -4.5805   -3.3569 C.3       2 UNK        -0.1931 
     34 N          25.8263   -3.5151   -1.1810 N.am      2 UNK        -0.4546 
     35 C          25.5870   -2.8308   -0.0576 C.2       1 UNK         0.5154 
     36 O          24.6189   -2.0800    0.0758 O.2       1 UNK        -0.5181 
     37 C          28.0506   -0.8277   -7.0585 C.2       5 UNK         0.5014 
     38 O          28.8515   -0.5283   -7.9490 O.2       5 UNK        -0.5248 
     39 N          27.8243   -0.0686   -5.9754 N.am      6 UNK        -0.4434 
     40 CA         28.4325    1.2435   -5.7528 C.3       6 UNK         0.0363 
     41 CB         28.1217    1.7298   -4.3288 C.3       6 UNK        -0.1936 
     42 C          27.9932    2.2773   -6.8064 C.2       6 UNK         0.5081 
     43 O          28.8468    2.9540   -7.3791 O.2       6 UNK        -0.5248 
     44 N          26.6817    2.3526   -7.0815 N.am      7 UNK        -0.4718 
     45 CA         26.0795    3.2402   -8.0852 C.3       7 UNK         0.0273 
     46 CB         24.5480    3.1770   -7.9816 C.3       7 UNK        -0.1935 
     47 C          26.5307    2.9468   -9.5265 C.2       7 UNK         0.5018 
     48 O          26.6568    3.8814  -10.3182 O.2       7 UNK        -0.5186 
     49 N          26.8047    1.6706   -9.8327 N.am      8 UNK        -0.4240 
     50 CA         27.3996    1.2175  -11.0941 C.3       8 UNK         0.0235 
     51 CB         27.2087   -0.3033  -11.2259 C.3       8 UNK        -0.2000 
     52 C          28.8878    1.5894  -11.2541 C.2       8 UNK         0.4941 
     53 O          29.4322    1.3798  -12.3390 O.2       8 UNK        -0.5273 
     54 N          29.5184    2.1198  -10.1933 N.am      9 UNK        -0.4262 
     55 CA         30.9197    2.5407  -10.1077 C.3       9 UNK         0.0264 
     56 CB         31.2139    3.7123  -11.0693 C.3       9 UNK        -0.1955 
     57 C          31.9085    1.3708  -10.2553 C.2       9 UNK         0.5031 
     58 O          32.9947    1.5488  -10.8110 O.2       9 UNK        -0.5390 
     59 N          31.5404    0.1994   -9.7131 N.am      10 UNK        -0.4204 
     60 CA         32.3847   -1.0014   -9.6749 C.3       10 UNK         0.0237 
     61 CB         31.5296   -2.1924   -9.2212 C.3       10 UNK        -0.1985 
     62 C          33.6229   -0.8609   -8.7667 C.2       10 UNK         0.4970 
     63 O          34.5430   -1.6726   -8.8705 O.2       10 UNK        -0.4914 
     64 N          33.6164    0.1541   -7.8947 N.am      11 UNK        -0.4285 
     65 CA         34.6786    0.4957   -6.9402 C.3       11 UNK         0.1007 
     66 C          36.0081    0.9868   -7.5840 C.2       11 UNK         0.5703 
     67 N          36.0313    1.3651   -8.8573 N.am      11 UNK        -0.7361 
     68 O          37.0367    1.0225   -6.9130 O.2       11 UNK        -0.4986 
     69 C69        34.1814    1.5114   -5.8715 C.3       12 UNK        -0.0947 
     70 S70        32.5170    1.1438   -5.2172 S.3       12 UNK        -0.2240 
     71 C71        32.8970   -0.1852   -4.0424 C.3       12 UNK         0.0194 
     72 H72        28.9783   -6.8429    1.3210 H         1 UNK         0.0906 
     73 H73        27.3957   -7.4671    0.8499 H         1 UNK         0.0906 
     74 H74        27.6009   -6.6665    2.4092 H         1 UNK         0.0906 
     75 H75        26.7739   -4.6617    2.3971 H         1 UNK         0.3140 
     76 H76        25.9210   -2.7761    1.9937 H         1 UNK         0.1085 
     77 H77        28.0663   -1.8837    2.1922 H         1 UNK         0.0836 
     78 H78        27.2753   -0.9476    0.9725 H         1 UNK         0.0836 
     79 H79        27.7050   -1.3787   -1.6642 H         1 UNK         0.0731 
     80 H80        28.8010   -0.1501   -1.0799 H         1 UNK         0.0731 
     81 H81        30.9861    0.1366   -2.1255 H         1 UNK         0.1312 
     82 H82        32.0952   -2.4077   -5.3974 H         1 UNK         0.1406 
     83 H83        28.5853   -3.2784   -3.0864 H         1 UNK         0.1631 
     84 H84        29.4211   -4.9252   -4.6583 H         1 UNK         0.0717 
     85 H85        31.0251   -4.7487   -5.3169 H         1 UNK         0.0717 
     86 H86        27.0276   -4.1559   -6.5341 H         1 UNK         0.0934 
     87 H87        27.6620   -3.0832   -5.3281 H         1 UNK         0.0934 
     88 H88        27.1944   -2.3728   -8.2600 H         1 UNK         0.0739 
     89 H89        25.4978   -2.1042   -5.9243 H         1 UNK         0.3093 
     90 H90        23.1716    0.1291   -7.4001 H         1 UNK         0.0818 
     91 H91        22.5502   -2.0277   -8.4969 H         1 UNK         0.0819 
     92 H92        22.8774   -2.8989   -7.0054 H         1 UNK         0.0819 
     93 H93        21.5605   -1.7268   -7.0793 H         1 UNK         0.0819 
     94 H94        23.0676   -1.4149   -5.0038 H         1 UNK         0.3041 
     95 H95        25.0389    0.6991   -2.9540 H         1 UNK         0.0784 
     96 H96        22.8685    1.9437   -3.0615 H         1 UNK         0.0793 
     97 H97        21.9840    0.4248   -3.0052 H         1 UNK         0.0793 
     98 H98        22.9615    0.9352   -1.6279 H         1 UNK         0.0793 
     99 H99        23.4971   -1.4394   -2.1152 H         1 UNK         0.3024 
    100 H100       23.9944   -3.6304   -2.1644 H         1 UNK         0.1171 
    101 H101       26.5639   -4.5131   -3.5861 H         1 UNK         0.0786 
    102 H102       25.3199   -5.5603   -2.9143 H         1 UNK         0.0786 
    103 H103       24.9582   -4.5476   -4.3028 H         1 UNK         0.0786 
    104 H104       26.6449   -4.1240   -1.1727 H         1 UNK         0.2977 
    105 H105       27.1636   -0.3979   -5.2819 H         1 UNK         0.3127 
    106 H106       29.5142    1.1210   -5.8381 H         1 UNK         0.0770 
    107 H107       28.6111    2.6841   -4.1306 H         1 UNK         0.0814 
    108 H108       27.0528    1.8718   -4.1698 H         1 UNK         0.0814 
    109 H109       28.4802    1.0215   -3.5827 H         1 UNK         0.0814 
    110 H110       26.0334    1.7984   -6.5239 H         1 UNK         0.2983 
    111 H111       26.3946    4.2588   -7.8491 H         1 UNK         0.0947 
    112 H112       24.1737    2.1753   -8.1929 H         1 UNK         0.0806 
    113 H113       24.0791    3.8580   -8.6931 H         1 UNK         0.0806 
    114 H114       24.2046    3.4612   -6.9868 H         1 UNK         0.0806 
    115 H115       26.5901    0.9512   -9.1496 H         1 UNK         0.3000 
    116 H116       26.8618    1.6992  -11.9133 H         1 UNK         0.0850 
    117 H117       27.6235   -0.6737  -12.1643 H         1 UNK         0.0810 
    118 H118       26.1524   -0.5721  -11.2144 H         1 UNK         0.0810 
    119 H119       27.7010   -0.8427  -10.4162 H         1 UNK         0.0810 
    120 H120       28.9879    2.2459   -9.3370 H         1 UNK         0.3040 
    121 H121       31.0548    2.9158   -9.0922 H         1 UNK         0.0766 
    122 H122       31.1745    3.4013  -12.1136 H         1 UNK         0.0812 
    123 H123       32.2089    4.1222  -10.8918 H         1 UNK         0.0812 
    124 H124       30.5008    4.5253  -10.9332 H         1 UNK         0.0812 
    125 H125       30.6323    0.1289   -9.2662 H         1 UNK         0.3205 
    126 H126       32.7411   -1.1965  -10.6884 H         1 UNK         0.0754 
    127 H127       32.1012   -3.1211   -9.2426 H         1 UNK         0.0769 
    128 H128       30.6587   -2.3303   -9.8625 H         1 UNK         0.0769 
    129 H129       31.1746   -2.0509   -8.2001 H         1 UNK         0.0769 
    130 H130       32.8038    0.7498   -7.8656 H         1 UNK         0.2981 
    131 H131       34.9296   -0.4309   -6.4219 H         1 UNK         0.0541 
    132 H132       36.8984    1.6787   -9.2637 H         1 UNK         0.3459 
    133 H133       35.1904    1.3409   -9.4152 H         1 UNK         0.3459 
    134 H134       34.1383    2.5154   -6.2981 H         1 UNK         0.0612 
    135 H135       34.8841    1.5663   -5.0380 H         1 UNK         0.0612 
    136 H136       33.7031   -0.8095   -4.4291 H         1 UNK         0.0624 
    137 H137       33.2628    0.2495   -3.1110 H         1 UNK         0.0624 
@<TRIPOS>BOND
     1    1    2 1    
     2    1   72 1    
     3    1   73 1    
     4    1   74 1    
     5    2    3 2    
     6    2    4 am   BACKBONE|DICT|INTERRES
     7    4    5 1    
     8    4   75 1    
     9    5    6 1    
    10    5   35 1    
    11    5   76 1    
    12    6    7 1    
    13    6   77 1    
    14    6   78 1    
    15    7    8 1    
    16    8    9 1    
    17    8   79 1    
    18    8   80 1    
    19    9   10 ar   
    20    9   14 ar   
    21   10   11 ar   
    22   10   81 1    
    23   11   12 ar   
    24   11   71 1    
    25   12   13 ar   
    26   12   82 1    
    27   13   14 ar   
    28   13   15 1    
    29   14   83 1    
    30   15   16 1    
    31   15   84 1    
    32   15   85 1    
    33   16   17 1    
    34   17   18 1    
    35   17   86 1    
    36   17   87 1    
    37   18   19 1    
    38   18   37 1    
    39   18   88 1    
    40   19   20 am   BACKBONE|DICT|INTERRES
    41   19   89 1    
    42   20   21 2    
    43   20   22 1    
    44   22   23 1    
    45   22   24 1    
    46   22   90 1    
    47   23   91 1    
    48   23   92 1    
    49   23   93 1    
    50   24   25 am   BACKBONE|DICT|INTERRES
    51   24   94 1    
    52   25   26 2    
    53   25   27 1    
    54   27   28 1    
    55   27   29 1    
    56   27   95 1    
    57   28   96 1    
    58   28   97 1    
    59   28   98 1    
    60   29   30 am   BACKBONE|DICT|INTERRES
    61   29   99 1    
    62   30   31 2    
    63   30   32 1    
    64   32   33 1    
    65   32   34 1    
    66   32  100 1    
    67   33  101 1    
    68   33  102 1    
    69   33  103 1    
    70   34   35 am   BACKBONE|DICT|INTERRES
    71   34  104 1    
    72   35   36 2    
    73   37   38 2    
    74   37   39 am   BACKBONE|DICT|INTERRES
    75   39   40 1    
    76   39  105 1    
    77   40   41 1    
    78   40   42 1    
    79   40  106 1    
    80   41  107 1    
    81   41  108 1    
    82   41  109 1    
    83   42   43 2    
    84   42   44 am   BACKBONE|DICT|INTERRES
    85   44   45 1    
    86   44  110 1    
    87   45   46 1    
    88   45   47 1    
    89   45  111 1    
    90   46  112 1    
    91   46  113 1    
    92   46  114 1    
    93   47   48 2    
    94   47   49 am   BACKBONE|DICT|INTERRES
    95   49   50 1    
    96   49  115 1    
    97   50   51 1    
    98   50   52 1    
    99   50  116 1    
   100   51  117 1    
   101   51  118 1    
   102   51  119 1    
   103   52   53 2    
   104   52   54 am   BACKBONE|DICT|INTERRES
   105   54   55 1    
   106   54  120 1    
   107   55   56 1    
   108   55   57 1    
   109   55  121 1    
   110   56  122 1    
   111   56  123 1    
   112   56  124 1    
   113   57   58 2    
   114   57   59 am   BACKBONE|DICT|INTERRES
   115   59   60 1    
   116   59  125 1    
   117   60   61 1    
   118   60   62 1    
   119   60  126 1    
   120   61  127 1    
   121   61  128 1    
   122   61  129 1    
   123   62   63 2    
   124   62   64 am   BACKBONE|DICT|INTERRES
   125   64   65 1    
   126   64  130 1    
   127   65   66 1    
   128   65   69 1    
   129   65  131 1    
   130   66   67 am   BACKBONE|DICT|INTERRES
   131   66   68 2    
   132   67  132 1    
   133   67  133 1    
   134   69   70 1    
   135   69  134 1    
   136   69  135 1    
   137   70   71 1    
   138   71  136 1    
   139   71  137 1    
@<TRIPOS>SUBSTRUCTURE
     1 UNK         1 GROUP             0       ****    0 ROOT    
