@<TRIPOS>MOLECULE
3R137
137   139    1
SMALL
USER_CHARGES


@<TRIPOS>ATOM
      1 CA         24.6719   -6.0941   -0.6640 C.3       0 UNK        -0.2020 
      2 C          25.5113   -4.9191   -1.1439 C.2       0 UNK         0.4855 
      3 O          26.1455   -5.0189   -2.1930 O.2       0 UNK        -0.5197 
      4 N          25.5250   -3.8232   -0.3714 N.am      1 UNK        -0.4892 
      5 CA         26.1698   -2.5334   -0.6638 C.3       1 UNK         0.0835 
      6 C6         27.6594   -2.6621   -1.0931 C.3       12 UNK        -0.0855 
      7 S7         28.7256   -1.3161   -0.4687 S.3       12 UNK        -0.2931 
      8 C8         30.3675   -2.1213   -0.4135 C.3       12 UNK         0.0378 
      9 C9         30.9614   -2.3376   -1.8022 C.ar      12 UNK        -0.0802 
     10 C10        31.9871   -1.5148   -2.2851 C.ar      12 UNK        -0.0944 
     11 C11        32.5174   -1.7195   -3.5655 C.ar      12 UNK        -0.0787 
     12 C12        31.9943   -2.7318   -4.3767 C.ar      12 UNK        -0.0862 
     13 C13        30.9738   -3.5580   -3.9025 C.ar      12 UNK        -0.0733 
     14 C14        30.4875   -3.3756   -2.6074 C.ar      12 UNK        -0.0832 
     15 C15        30.3813   -4.6537   -4.7707 C.3       12 UNK         0.0240 
     16 S16        28.6755   -4.2429   -5.2558 S.3       12 UNK        -0.2522 
     17 C17        28.9059   -3.4520   -6.8882 C.3       12 UNK        -0.0967 
     18 CA         27.9956   -2.2171   -7.1749 C.3       5 UNK         0.0660 
     19 N          26.6267   -2.3240   -6.6540 N.am      5 UNK        -0.4015 
     20 C          25.7501   -3.2537   -7.0653 C.2       4 UNK         0.4946 
     21 O          25.9759   -4.0500   -7.9786 O.2       4 UNK        -0.5353 
     22 CA         24.3933   -3.3378   -6.3412 C.3       4 UNK         0.0277 
     23 CB         24.4734   -4.3398   -5.1802 C.3       4 UNK        -0.1981 
     24 N          23.9149   -2.0556   -5.8291 N.am      4 UNK        -0.4209 
     25 C          23.5587   -1.0176   -6.5961 C.2       3 UNK         0.4942 
     26 O          23.5362   -1.0560   -7.8267 O.2       3 UNK        -0.5208 
     27 CA         23.1678    0.2923   -5.8892 C.3       3 UNK         0.0250 
     28 CB         21.6505    0.5218   -5.9868 C.3       3 UNK        -0.1990 
     29 N          23.5738    0.4159   -4.4817 N.am      3 UNK        -0.4232 
     30 C          24.8200    0.3347   -3.9937 C.2       2 UNK         0.4993 
     31 O          25.8012    0.0414   -4.6794 O.2       2 UNK        -0.5286 
     32 CA         25.0257    0.6680   -2.5026 C.3       2 UNK         0.0209 
     33 CB         23.7329    1.0756   -1.7580 C.3       2 UNK        -0.1931 
     34 N          25.7176   -0.3998   -1.7703 N.am      2 UNK        -0.4546 
     35 C          25.3288   -1.6761   -1.6397 C.2       1 UNK         0.5154 
     36 O          24.3393   -2.1497   -2.2074 O.2       1 UNK        -0.5181 
     37 C          28.6657   -0.8907   -6.7832 C.2       5 UNK         0.5014 
     38 O          29.2408   -0.2348   -7.6547 O.2       5 UNK        -0.5248 
     39 N          28.5860   -0.5055   -5.5035 N.am      6 UNK        -0.4434 
     40 CA         29.2443    0.6858   -4.9606 C.3       6 UNK         0.0363 
     41 CB         29.1278    0.6976   -3.4320 C.3       6 UNK        -0.1936 
     42 C          28.7368    2.0046   -5.5591 C.2       6 UNK         0.5081 
     43 O          29.5314    2.7777   -6.0937 O.2       6 UNK        -0.5248 
     44 N          27.4171    2.2246   -5.5010 N.am      7 UNK        -0.4718 
     45 CA         26.7679    3.4230   -6.0502 C.3       7 UNK         0.0273 
     46 CB         25.4118    3.6527   -5.3663 C.3       7 UNK        -0.1935 
     47 C          26.6262    3.3719   -7.5819 C.2       7 UNK         0.5018 
     48 O          26.4184    4.4135   -8.2040 O.2       7 UNK        -0.5186 
     49 N          26.7881    2.1749   -8.1639 N.am      8 UNK        -0.4240 
     50 CA         26.9383    1.9547   -9.6038 C.3       8 UNK         0.0235 
     51 CB         26.5491    0.5031   -9.9319 C.3       8 UNK        -0.2000 
     52 C          28.3620    2.2723  -10.1106 C.2       8 UNK         0.4941 
     53 O          28.5749    2.2510  -11.3233 O.2       8 UNK        -0.5273 
     54 N          29.3002    2.5573   -9.1909 N.am      9 UNK        -0.4262 
     55 CA         30.7084    2.8976   -9.4148 C.3       9 UNK         0.0264 
     56 CB         30.8452    4.2185  -10.2026 C.3       9 UNK        -0.1955 
     57 C          31.5301    1.7436  -10.0190 C.2       9 UNK         0.5031 
     58 O          32.4680    1.9929  -10.7794 O.2       9 UNK        -0.5390 
     59 N          31.2015    0.4984   -9.6436 N.am      10 UNK        -0.4204 
     60 CA         31.9258   -0.7067  -10.0663 C.3       10 UNK         0.0237 
     61 CB         31.0131   -1.9309   -9.8916 C.3       10 UNK        -0.1985 
     62 C          33.2637   -0.9121   -9.3257 C.2       10 UNK         0.4970 
     63 O          34.0216   -1.8076   -9.7014 O.2       10 UNK        -0.4914 
     64 N          33.5293   -0.0998   -8.2934 N.am      11 UNK        -0.4285 
     65 CA         34.7495   -0.1181   -7.4699 C.3       11 UNK         0.1007 
     66 C          36.0590    0.2621   -8.2225 C.2       11 UNK         0.5703 
     67 N          35.9971    0.8912   -9.3909 N.am      11 UNK        -0.7361 
     68 O          37.1506   -0.0219   -7.7347 O.2       11 UNK        -0.4986 
     69 C69        34.5949    0.7508   -6.1905 C.3       12 UNK        -0.0947 
     70 S70        33.0751    0.3883   -5.2517 S.3       12 UNK        -0.2240 
     71 C71        33.6666   -0.8670   -4.0808 C.3       12 UNK         0.0194 
     72 H72        23.9083   -6.3336   -1.4036 H         1 UNK         0.0906 
     73 H73        25.3011   -6.9732   -0.5270 H         1 UNK         0.0906 
     74 H74        24.1732   -5.8829    0.2819 H         1 UNK         0.0906 
     75 H75        24.9580   -3.8232    0.4656 H         1 UNK         0.3140 
     76 H76        26.1404   -2.0050    0.2909 H         1 UNK         0.1085 
     77 H77        28.0660   -3.5937   -0.6974 H         1 UNK         0.0836 
     78 H78        27.7508   -2.7299   -2.1793 H         1 UNK         0.0836 
     79 H79        31.0356   -1.4991    0.1838 H         1 UNK         0.0731 
     80 H80        30.2948   -3.0741    0.1131 H         1 UNK         0.0731 
     81 H81        32.3752   -0.7185   -1.6647 H         1 UNK         0.1312 
     82 H82        32.3868   -2.8757   -5.3742 H         1 UNK         0.1406 
     83 H83        29.7139   -4.0359   -2.2433 H         1 UNK         0.1631 
     84 H84        30.3674   -5.5863   -4.2048 H         1 UNK         0.0717 
     85 H85        30.9953   -4.8433   -5.6524 H         1 UNK         0.0717 
     86 H86        29.9594   -3.2012   -7.0198 H         1 UNK         0.0934 
     87 H87        28.7041   -4.2202   -7.6364 H         1 UNK         0.0934 
     88 H88        27.8932   -2.1602   -8.2607 H         1 UNK         0.0739 
     89 H89        26.3480   -1.6592   -5.9409 H         1 UNK         0.3093 
     90 H90        23.6589   -3.7056   -7.0611 H         1 UNK         0.0818 
     91 H91        23.5035   -4.4803   -4.7029 H         1 UNK         0.0819 
     92 H92        24.8113   -5.3175   -5.5265 H         1 UNK         0.0819 
     93 H93        25.1770   -4.0051   -4.4171 H         1 UNK         0.0819 
     94 H94        23.9123   -1.9347   -4.8247 H         1 UNK         0.3041 
     95 H95        23.6635    1.0875   -6.4466 H         1 UNK         0.0784 
     96 H96        21.3104    0.4690   -7.0223 H         1 UNK         0.0793 
     97 H97        21.0932   -0.2273   -5.4227 H         1 UNK         0.0793 
     98 H98        21.3714    1.5056   -5.6088 H         1 UNK         0.0793 
     99 H99        22.8350    0.6356   -3.8291 H         1 UNK         0.3024 
    100 H100       25.6932    1.5313   -2.4883 H         1 UNK         0.1171 
    101 H101       23.2620    1.9443   -2.2206 H         1 UNK         0.0786 
    102 H102       23.9503    1.3520   -0.7259 H         1 UNK         0.0786 
    103 H103       22.9994    0.2686   -1.7305 H         1 UNK         0.0786 
    104 H104       26.5712   -0.1264   -1.3001 H         1 UNK         0.2977 
    105 H105       28.0897   -1.0852   -4.8427 H         1 UNK         0.3127 
    106 H106       30.3006    0.6076   -5.2121 H         1 UNK         0.0770 
    107 H107       28.0903    0.7124   -3.1002 H         1 UNK         0.0814 
    108 H108       29.6248    1.5699   -3.0054 H         1 UNK         0.0814 
    109 H109       29.6034   -0.1832   -3.0072 H         1 UNK         0.0814 
    110 H110       26.8224    1.4943   -5.1136 H         1 UNK         0.2983 
    111 H111       27.3986    4.2855   -5.8213 H         1 UNK         0.0947 
    112 H112       24.9705    4.5958   -5.6917 H         1 UNK         0.0806 
    113 H113       25.5147    3.7023   -4.2824 H         1 UNK         0.0806 
    114 H114       24.6981    2.8684   -5.6034 H         1 UNK         0.0806 
    115 H115       26.9632    1.3821   -7.5639 H         1 UNK         0.3000 
    116 H116       26.2498    2.6184  -10.1316 H         1 UNK         0.0850 
    117 H117       26.5458    0.3366  -11.0099 H         1 UNK         0.0810 
    118 H118       25.5507    0.2627   -9.5649 H         1 UNK         0.0810 
    119 H119       27.2483   -0.2108   -9.4992 H         1 UNK         0.0810 
    120 H120       29.0334    2.5157   -8.2142 H         1 UNK         0.3040 
    121 H121       31.1296    3.0693   -8.4230 H         1 UNK         0.0766 
    122 H122       31.8835    4.5515  -10.2302 H         1 UNK         0.0812 
    123 H123       30.2629    5.0170   -9.7427 H         1 UNK         0.0812 
    124 H124       30.5127    4.1115  -11.2356 H         1 UNK         0.0812 
    125 H125       30.4333    0.3613   -8.9870 H         1 UNK         0.3205 
    126 H126       32.1574   -0.6114  -11.1294 H         1 UNK         0.0754 
    127 H127       31.4763   -2.8278  -10.3050 H         1 UNK         0.0769 
    128 H128       30.0576   -1.7942  -10.3993 H         1 UNK         0.0769 
    129 H129       30.8122   -2.1251   -8.8397 H         1 UNK         0.0769 
    130 H130       32.8399    0.5902   -8.0377 H         1 UNK         0.2981 
    131 H131       34.8833   -1.1520   -7.1458 H         1 UNK         0.0541 
    132 H132       36.8517    1.1293   -9.8694 H         1 UNK         0.3459 
    133 H133       35.1057    1.1291   -9.7982 H         1 UNK         0.3459 
    134 H134       34.5684    1.8094   -6.4561 H         1 UNK         0.0612 
    135 H135       35.4557    0.6262   -5.5306 H         1 UNK         0.0612 
    136 H136       34.3974   -1.5119   -4.5720 H         1 UNK         0.0624 
    137 H137       34.1884   -0.3752   -3.2581 H         1 UNK         0.0624 
@<TRIPOS>BOND
     1    1    2 1    
     2    1   72 1    
     3    1   73 1    
     4    1   74 1    
     5    2    3 2    
     6    2    4 am   BACKBONE|DICT|INTERRES
     7    4    5 1    
     8    4   75 1    
     9    5    6 1    
    10    5   35 1    
    11    5   76 1    
    12    6    7 1    
    13    6   77 1    
    14    6   78 1    
    15    7    8 1    
    16    8    9 1    
    17    8   79 1    
    18    8   80 1    
    19    9   10 ar   
    20    9   14 ar   
    21   10   11 ar   
    22   10   81 1    
    23   11   12 ar   
    24   11   71 1    
    25   12   13 ar   
    26   12   82 1    
    27   13   14 ar   
    28   13   15 1    
    29   14   83 1    
    30   15   16 1    
    31   15   84 1    
    32   15   85 1    
    33   16   17 1    
    34   17   18 1    
    35   17   86 1    
    36   17   87 1    
    37   18   19 1    
    38   18   37 1    
    39   18   88 1    
    40   19   20 am   BACKBONE|DICT|INTERRES
    41   19   89 1    
    42   20   21 2    
    43   20   22 1    
    44   22   23 1    
    45   22   24 1    
    46   22   90 1    
    47   23   91 1    
    48   23   92 1    
    49   23   93 1    
    50   24   25 am   BACKBONE|DICT|INTERRES
    51   24   94 1    
    52   25   26 2    
    53   25   27 1    
    54   27   28 1    
    55   27   29 1    
    56   27   95 1    
    57   28   96 1    
    58   28   97 1    
    59   28   98 1    
    60   29   30 am   BACKBONE|DICT|INTERRES
    61   29   99 1    
    62   30   31 2    
    63   30   32 1    
    64   32   33 1    
    65   32   34 1    
    66   32  100 1    
    67   33  101 1    
    68   33  102 1    
    69   33  103 1    
    70   34   35 am   BACKBONE|DICT|INTERRES
    71   34  104 1    
    72   35   36 2    
    73   37   38 2    
    74   37   39 am   BACKBONE|DICT|INTERRES
    75   39   40 1    
    76   39  105 1    
    77   40   41 1    
    78   40   42 1    
    79   40  106 1    
    80   41  107 1    
    81   41  108 1    
    82   41  109 1    
    83   42   43 2    
    84   42   44 am   BACKBONE|DICT|INTERRES
    85   44   45 1    
    86   44  110 1    
    87   45   46 1    
    88   45   47 1    
    89   45  111 1    
    90   46  112 1    
    91   46  113 1    
    92   46  114 1    
    93   47   48 2    
    94   47   49 am   BACKBONE|DICT|INTERRES
    95   49   50 1    
    96   49  115 1    
    97   50   51 1    
    98   50   52 1    
    99   50  116 1    
   100   51  117 1    
   101   51  118 1    
   102   51  119 1    
   103   52   53 2    
   104   52   54 am   BACKBONE|DICT|INTERRES
   105   54   55 1    
   106   54  120 1    
   107   55   56 1    
   108   55   57 1    
   109   55  121 1    
   110   56  122 1    
   111   56  123 1    
   112   56  124 1    
   113   57   58 2    
   114   57   59 am   BACKBONE|DICT|INTERRES
   115   59   60 1    
   116   59  125 1    
   117   60   61 1    
   118   60   62 1    
   119   60  126 1    
   120   61  127 1    
   121   61  128 1    
   122   61  129 1    
   123   62   63 2    
   124   62   64 am   BACKBONE|DICT|INTERRES
   125   64   65 1    
   126   64  130 1    
   127   65   66 1    
   128   65   69 1    
   129   65  131 1    
   130   66   67 am   BACKBONE|DICT|INTERRES
   131   66   68 2    
   132   67  132 1    
   133   67  133 1    
   134   69   70 1    
   135   69  134 1    
   136   69  135 1    
   137   70   71 1    
   138   71  136 1    
   139   71  137 1    
@<TRIPOS>SUBSTRUCTURE
     1 UNK         1 GROUP             0       ****    0 ROOT    
