@<TRIPOS>MOLECULE
3R137
137   139    1
SMALL
USER_CHARGES


@<TRIPOS>ATOM
      1 CA         27.1742   -6.8716   -0.7710 C.3       0 UNK        -0.2020 
      2 C          27.0800   -5.3537   -0.7773 C.2       0 UNK         0.4855 
      3 O          27.0295   -4.7612   -1.8525 O.2       0 UNK        -0.5197 
      4 N          27.0371   -4.7416    0.4156 N.am      1 UNK        -0.4892 
      5 CA         27.0042   -3.3066    0.7659 C.3       1 UNK         0.0835 
      6 C6         28.3789   -2.5898    0.6318 C.3       12 UNK        -0.0855 
      7 S7         28.8633   -2.0785   -1.0535 S.3       12 UNK        -0.2931 
      8 C8         30.1787   -3.2784   -1.4175 C.3       12 UNK         0.0378 
      9 C9         30.5686   -3.2096   -2.8833 C.ar      12 UNK        -0.0802 
     10 C10        31.6424   -2.4145   -3.2950 C.ar      12 UNK        -0.0944 
     11 C11        31.9904   -2.3455   -4.6463 C.ar      12 UNK        -0.0787 
     12 C12        31.2420   -3.0633   -5.5828 C.ar      12 UNK        -0.0862 
     13 C13        30.1542   -3.8500   -5.1918 C.ar      12 UNK        -0.0733 
     14 C14        29.8418   -3.9375   -3.8305 C.ar      12 UNK        -0.0832 
     15 C15        29.3722   -4.6009   -6.2724 C.3       12 UNK         0.0240 
     16 S16        27.6401   -5.0507   -5.8818 S.3       12 UNK        -0.2522 
     17 C17        26.8536   -3.4924   -5.3438 C.3       12 UNK        -0.0967 
     18 CA         26.5725   -2.4718   -6.4796 C.3       5 UNK         0.0660 
     19 N          25.3666   -1.6821   -6.2101 N.am      5 UNK        -0.4015 
     20 C          24.7685   -0.8654   -7.0914 C.2       4 UNK         0.4946 
     21 O          25.1343   -0.7311   -8.2582 O.2       4 UNK        -0.5353 
     22 CA         23.5795   -0.0280   -6.5860 C.3       4 UNK         0.0277 
     23 CB         22.2623   -0.7958   -6.7795 C.3       4 UNK        -0.1981 
     24 N          23.7053    0.3795   -5.1850 N.am      4 UNK        -0.4209 
     25 C          24.6690    1.1779   -4.7024 C.2       3 UNK         0.4942 
     26 O          25.5308    1.7092   -5.3997 O.2       3 UNK        -0.5208 
     27 CA         24.7159    1.3700   -3.1767 C.3       3 UNK         0.0250 
     28 CB         23.8891    2.5976   -2.7631 C.3       3 UNK        -0.1990 
     29 N          24.2703    0.1957   -2.4158 N.am      3 UNK        -0.4232 
     30 C          24.8274   -1.0208   -2.4965 C.2       2 UNK         0.4993 
     31 O          25.7530   -1.3003   -3.2628 O.2       2 UNK        -0.5286 
     32 CA         24.2028   -2.1247   -1.6344 C.3       2 UNK         0.0209 
     33 CB         23.4051   -3.1053   -2.5099 C.3       2 UNK        -0.1931 
     34 N          25.2531   -2.8558   -0.9332 N.am      2 UNK        -0.4546 
     35 C          25.8258   -2.4679    0.2100 C.2       1 UNK         0.5154 
     36 O          25.4392   -1.4890    0.8523 O.2       1 UNK        -0.5181 
     37 C          27.7705   -1.5318   -6.6966 C.2       5 UNK         0.5014 
     38 O          28.4474   -1.6185   -7.7236 O.2       5 UNK        -0.5248 
     39 N          27.9702   -0.6173   -5.7365 N.am      6 UNK        -0.4434 
     40 CA         29.0315    0.3851   -5.7619 C.3       6 UNK         0.0363 
     41 CB         29.0656    1.1423   -4.4264 C.3       6 UNK        -0.1936 
     42 C          28.9155    1.3509   -6.9511 C.2       6 UNK         0.5081 
     43 O          29.9271    1.6426   -7.5869 O.2       6 UNK        -0.5248 
     44 N          27.6877    1.7912   -7.2612 N.am      7 UNK        -0.4718 
     45 CA         27.3707    2.6336   -8.4163 C.3       7 UNK         0.0273 
     46 CB         25.9131    3.1113   -8.3275 C.3       7 UNK        -0.1935 
     47 C          27.6292    1.9386   -9.7629 C.2       7 UNK         0.5018 
     48 O          28.1559    2.5819  -10.6709 O.2       7 UNK        -0.5186 
     49 N          27.2778    0.6474   -9.8687 N.am      8 UNK        -0.4240 
     50 CA         27.5318   -0.1778  -11.0536 C.3       8 UNK         0.0235 
     51 CB         26.7619   -1.5041  -10.9494 C.3       8 UNK        -0.2000 
     52 C          29.0291   -0.4352  -11.2846 C.2       8 UNK         0.4941 
     53 O          29.4845   -0.3591  -12.4266 O.2       8 UNK        -0.5273 
     54 N          29.7678   -0.7174  -10.2023 N.am      9 UNK        -0.4262 
     55 CA         31.2221   -0.8956  -10.2241 C.3       9 UNK         0.0264 
     56 CB         31.6594   -1.5839   -8.9249 C.3       9 UNK        -0.1955 
     57 C          31.9992    0.4185  -10.4197 C.2       9 UNK         0.5031 
     58 O          33.1119    0.3809  -10.9467 O.2       9 UNK        -0.5390 
     59 N          31.4109    1.5383   -9.9745 N.am      10 UNK        -0.4204 
     60 CA         31.9670    2.8947   -9.9255 C.3       10 UNK         0.0237 
     61 CB         32.2602    3.4351  -11.3416 C.3       10 UNK        -0.1985 
     62 C          33.1667    3.0106   -8.9634 C.2       10 UNK         0.4970 
     63 O          34.0789    3.8015   -9.2133 O.2       10 UNK        -0.4914 
     64 N          33.1460    2.2196   -7.8829 N.am      11 UNK        -0.4285 
     65 CA         34.1535    2.2302   -6.8146 C.3       11 UNK         0.1007 
     66 C          33.9518    3.3949   -5.8042 C.2       11 UNK         0.5703 
     67 N          34.9613    3.6923   -4.9965 N.am      11 UNK        -0.7361 
     68 O          32.8975    4.0252   -5.7337 O.2       11 UNK        -0.4986 
     69 C69        34.2757    0.8424   -6.1280 C.3       12 UNK        -0.0947 
     70 S70        32.7229    0.2136   -5.4084 S.3       12 UNK        -0.2240 
     71 C71        33.1846   -1.5163   -5.0965 C.3       12 UNK         0.0194 
     72 H72        27.2151   -7.2772    0.2396 H         1 UNK         0.0906 
     73 H73        26.3096   -7.3022   -1.2754 H         1 UNK         0.0906 
     74 H74        28.0710   -7.1914   -1.3012 H         1 UNK         0.0906 
     75 H75        27.0374   -5.3418    1.2293 H         1 UNK         0.3140 
     76 H76        26.8026   -3.3337    1.8384 H         1 UNK         0.1085 
     77 H77        28.3695   -1.6853    1.2427 H         1 UNK         0.0836 
     78 H78        29.1635   -3.2125    1.0644 H         1 UNK         0.0836 
     79 H79        29.8397   -4.2856   -1.1727 H         1 UNK         0.0731 
     80 H80        31.0415   -3.0775   -0.7806 H         1 UNK         0.0731 
     81 H81        32.2076   -1.8507   -2.5654 H         1 UNK         0.1312 
     82 H82        31.5135   -3.0139   -6.6254 H         1 UNK         0.1406 
     83 H83        29.0154   -4.5518   -3.5010 H         1 UNK         0.1631 
     84 H84        29.9123   -5.5210   -6.4981 H         1 UNK         0.0717 
     85 H85        29.3709   -4.0240   -7.1975 H         1 UNK         0.0717 
     86 H86        25.9086   -3.8000   -4.8940 H         1 UNK         0.0934 
     87 H87        27.4080   -3.0483   -4.5157 H         1 UNK         0.0934 
     88 H88        26.3977   -3.0165   -7.4101 H         1 UNK         0.0739 
     89 H89        25.0641   -1.6598   -5.2440 H         1 UNK         0.3093 
     90 H90        23.5371    0.8796   -7.1914 H         1 UNK         0.0818 
     91 H91        21.4016   -0.1824   -6.5120 H         1 UNK         0.0819 
     92 H92        22.1343   -1.0919   -7.8218 H         1 UNK         0.0819 
     93 H93        22.2294   -1.7043   -6.1766 H         1 UNK         0.0819 
     94 H94        23.0340   -0.0024   -4.5351 H         1 UNK         0.3041 
     95 H95        25.7584    1.5538   -2.9082 H         1 UNK         0.0784 
     96 H96        24.2172    3.4877   -3.3021 H         1 UNK         0.0793 
     97 H97        22.8276    2.4616   -2.9745 H         1 UNK         0.0793 
     98 H98        23.9965    2.8090   -1.6990 H         1 UNK         0.0793 
     99 H99        23.5072    0.3421   -1.7702 H         1 UNK         0.3024 
    100 H100       23.5243   -1.6796   -0.9031 H         1 UNK         0.1171 
    101 H101       22.9342   -3.8803   -1.9050 H         1 UNK         0.0786 
    102 H102       22.6111   -2.5913   -3.0531 H         1 UNK         0.0786 
    103 H103       24.0405   -3.5991   -3.2462 H         1 UNK         0.0786 
    104 H104       25.7296   -3.5955   -1.4472 H         1 UNK         0.2977 
    105 H105       27.3548   -0.6160   -4.9326 H         1 UNK         0.3127 
    106 H106       29.9691   -0.1593   -5.8729 H         1 UNK         0.0770 
    107 H107       28.1351    1.6801   -4.2417 H         1 UNK         0.0814 
    108 H108       29.8758    1.8728   -4.4173 H         1 UNK         0.0814 
    109 H109       29.2348    0.4613   -3.5916 H         1 UNK         0.0814 
    110 H110       26.9141    1.5584   -6.6415 H         1 UNK         0.2983 
    111 H111       28.0197    3.5109   -8.3705 H         1 UNK         0.0947 
    112 H112       25.6629    3.7627   -9.1659 H         1 UNK         0.0806 
    113 H113       25.7365    3.6776   -7.4129 H         1 UNK         0.0806 
    114 H114       25.2144    2.2745   -8.3431 H         1 UNK         0.0806 
    115 H115       26.8053    0.1963   -9.0915 H         1 UNK         0.3000 
    116 H116       27.1535    0.3635  -11.9236 H         1 UNK         0.0850 
    117 H117       26.9473   -2.1343  -11.8202 H         1 UNK         0.0810 
    118 H118       25.6866   -1.3331  -10.8970 H         1 UNK         0.0810 
    119 H119       27.0524   -2.0726  -10.0652 H         1 UNK         0.0810 
    120 H120       29.2996   -0.8326   -9.3058 H         1 UNK         0.3040 
    121 H121       31.4744   -1.5531  -11.0588 H         1 UNK         0.0766 
    122 H122       31.3781   -1.0002   -8.0471 H         1 UNK         0.0812 
    123 H123       32.7409   -1.7240   -8.8948 H         1 UNK         0.0812 
    124 H124       31.1993   -2.5681   -8.8395 H         1 UNK         0.0812 
    125 H125       30.5408    1.4295   -9.4615 H         1 UNK         0.3205 
    126 H126       31.1815    3.5181   -9.4956 H         1 UNK         0.0754 
    127 H127       32.5234    4.4930  -11.3092 H         1 UNK         0.0769 
    128 H128       31.3882    3.3386  -11.9887 H         1 UNK         0.0769 
    129 H129       33.0900    2.9090  -11.8142 H         1 UNK         0.0769 
    130 H130       32.3196    1.6644   -7.7047 H         1 UNK         0.2981 
    131 H131       35.1175    2.4202   -7.2907 H         1 UNK         0.0541 
    132 H132       35.8317    3.1856   -5.0389 H         1 UNK         0.3459 
    133 H133       34.8499    4.4409   -4.3308 H         1 UNK         0.3459 
    134 H134       35.0387    0.8599   -5.3480 H         1 UNK         0.0612 
    135 H135       34.6242    0.1167   -6.8645 H         1 UNK         0.0612 
    136 H136       33.6127   -1.9455   -6.0038 H         1 UNK         0.0624 
    137 H137       33.9696   -1.5476   -4.3395 H         1 UNK         0.0624 
@<TRIPOS>BOND
     1    1    2 1    
     2    1   72 1    
     3    1   73 1    
     4    1   74 1    
     5    2    3 2    
     6    2    4 am   BACKBONE|DICT|INTERRES
     7    4    5 1    
     8    4   75 1    
     9    5    6 1    
    10    5   35 1    
    11    5   76 1    
    12    6    7 1    
    13    6   77 1    
    14    6   78 1    
    15    7    8 1    
    16    8    9 1    
    17    8   79 1    
    18    8   80 1    
    19    9   10 ar   
    20    9   14 ar   
    21   10   11 ar   
    22   10   81 1    
    23   11   12 ar   
    24   11   71 1    
    25   12   13 ar   
    26   12   82 1    
    27   13   14 ar   
    28   13   15 1    
    29   14   83 1    
    30   15   16 1    
    31   15   84 1    
    32   15   85 1    
    33   16   17 1    
    34   17   18 1    
    35   17   86 1    
    36   17   87 1    
    37   18   19 1    
    38   18   37 1    
    39   18   88 1    
    40   19   20 am   BACKBONE|DICT|INTERRES
    41   19   89 1    
    42   20   21 2    
    43   20   22 1    
    44   22   23 1    
    45   22   24 1    
    46   22   90 1    
    47   23   91 1    
    48   23   92 1    
    49   23   93 1    
    50   24   25 am   BACKBONE|DICT|INTERRES
    51   24   94 1    
    52   25   26 2    
    53   25   27 1    
    54   27   28 1    
    55   27   29 1    
    56   27   95 1    
    57   28   96 1    
    58   28   97 1    
    59   28   98 1    
    60   29   30 am   BACKBONE|DICT|INTERRES
    61   29   99 1    
    62   30   31 2    
    63   30   32 1    
    64   32   33 1    
    65   32   34 1    
    66   32  100 1    
    67   33  101 1    
    68   33  102 1    
    69   33  103 1    
    70   34   35 am   BACKBONE|DICT|INTERRES
    71   34  104 1    
    72   35   36 2    
    73   37   38 2    
    74   37   39 am   BACKBONE|DICT|INTERRES
    75   39   40 1    
    76   39  105 1    
    77   40   41 1    
    78   40   42 1    
    79   40  106 1    
    80   41  107 1    
    81   41  108 1    
    82   41  109 1    
    83   42   43 2    
    84   42   44 am   BACKBONE|DICT|INTERRES
    85   44   45 1    
    86   44  110 1    
    87   45   46 1    
    88   45   47 1    
    89   45  111 1    
    90   46  112 1    
    91   46  113 1    
    92   46  114 1    
    93   47   48 2    
    94   47   49 am   BACKBONE|DICT|INTERRES
    95   49   50 1    
    96   49  115 1    
    97   50   51 1    
    98   50   52 1    
    99   50  116 1    
   100   51  117 1    
   101   51  118 1    
   102   51  119 1    
   103   52   53 2    
   104   52   54 am   BACKBONE|DICT|INTERRES
   105   54   55 1    
   106   54  120 1    
   107   55   56 1    
   108   55   57 1    
   109   55  121 1    
   110   56  122 1    
   111   56  123 1    
   112   56  124 1    
   113   57   58 2    
   114   57   59 am   BACKBONE|DICT|INTERRES
   115   59   60 1    
   116   59  125 1    
   117   60   61 1    
   118   60   62 1    
   119   60  126 1    
   120   61  127 1    
   121   61  128 1    
   122   61  129 1    
   123   62   63 2    
   124   62   64 am   BACKBONE|DICT|INTERRES
   125   64   65 1    
   126   64  130 1    
   127   65   66 1    
   128   65   69 1    
   129   65  131 1    
   130   66   67 am   BACKBONE|DICT|INTERRES
   131   66   68 2    
   132   67  132 1    
   133   67  133 1    
   134   69   70 1    
   135   69  134 1    
   136   69  135 1    
   137   70   71 1    
   138   71  136 1    
   139   71  137 1    
@<TRIPOS>SUBSTRUCTURE
     1 UNK         1 GROUP             0       ****    0 ROOT    
