@<TRIPOS>MOLECULE
3R137
137   139    1
SMALL
USER_CHARGES


@<TRIPOS>ATOM
      1 CA         24.0445   -2.0938   -8.2396 C.3       0 UNK        -0.2020 
      2 C          24.1622   -3.1792   -7.1824 C.2       0 UNK         0.4855 
      3 O          23.4253   -4.1653   -7.2279 O.2       0 UNK        -0.5197 
      4 N          25.0923   -3.0048   -6.2397 N.am      1 UNK        -0.4892 
      5 CA         25.3223   -3.9144   -5.1131 C.3       1 UNK         0.0835 
      6 C6         26.8204   -3.9291   -4.7181 C.3       12 UNK        -0.0855 
      7 S7         27.8355   -4.7928   -5.9617 S.3       12 UNK        -0.2931 
      8 C8         29.1920   -5.4428   -4.9365 C.3       12 UNK         0.0378 
      9 C9         30.1378   -4.3420   -4.4759 C.ar      12 UNK        -0.0802 
     10 C10        31.2751   -4.0311   -5.2294 C.ar      12 UNK        -0.0944 
     11 C11        32.1718   -3.0520   -4.7901 C.ar      12 UNK        -0.0787 
     12 C12        31.9154   -2.3747   -3.5949 C.ar      12 UNK        -0.0862 
     13 C13        30.7675   -2.6527   -2.8497 C.ar      12 UNK        -0.0733 
     14 C14        29.8907   -3.6495   -3.2856 C.ar      12 UNK        -0.0832 
     15 C15        30.4852   -1.8826   -1.5675 C.3       12 UNK         0.0240 
     16 S16        29.0521   -0.7677   -1.7246 S.3       12 UNK        -0.2522 
     17 C17        29.5522    0.3603   -3.0739 C.3       12 UNK        -0.0967 
     18 CA         28.6043    0.2498   -4.2939 C.3       5 UNK         0.0660 
     19 N          27.2156    0.5443   -3.9231 N.am      5 UNK        -0.4015 
     20 C          26.1378    0.3233   -4.6833 C.2       4 UNK         0.4946 
     21 O          26.1779   -0.2174   -5.7910 O.2       4 UNK        -0.5353 
     22 CA         24.8016    0.8037   -4.0920 C.3       4 UNK         0.0277 
     23 CB         23.6219    0.6611   -5.0717 C.3       4 UNK        -0.1981 
     24 N          24.4914    0.0910   -2.8512 N.am      4 UNK        -0.4209 
     25 C          24.9280    0.4442   -1.6328 C.2       3 UNK         0.4942 
     26 O          25.6964    1.3897   -1.4484 O.2       3 UNK        -0.5208 
     27 CA         24.4326   -0.3609   -0.4153 C.3       3 UNK         0.0250 
     28 CB         23.3512    0.4295    0.3400 C.3       3 UNK        -0.1990 
     29 N          23.8958   -1.6758   -0.7728 N.am      3 UNK        -0.4232 
     30 C          24.6448   -2.7693   -0.9613 C.2       2 UNK         0.4993 
     31 O          25.8598   -2.8098   -0.7635 O.2       2 UNK        -0.5286 
     32 CA         23.9454   -4.0282   -1.5135 C.3       2 UNK         0.0209 
     33 CB         22.3994   -3.9656   -1.5083 C.3       2 UNK        -0.1931 
     34 N          24.4617   -4.3354   -2.8543 N.am      2 UNK        -0.4546 
     35 C          24.4414   -3.5107   -3.9136 C.2       1 UNK         0.5154 
     36 O          23.8018   -2.4561   -3.9342 O.2       1 UNK        -0.5181 
     37 C          29.0800    1.1484   -5.4558 C.2       5 UNK         0.5014 
     38 O          29.8039    0.6856   -6.3364 O.2       5 UNK        -0.5248 
     39 N          28.6217    2.4089   -5.4826 N.am      6 UNK        -0.4434 
     40 CA         28.8880    3.3617   -6.5658 C.3       6 UNK         0.0363 
     41 CB         28.4088    4.7590   -6.1430 C.3       6 UNK        -0.1936 
     42 C          28.2581    2.9588   -7.9129 C.2       6 UNK         0.5081 
     43 O          28.7723    3.3561   -8.9576 O.2       6 UNK        -0.5248 
     44 N          27.1766    2.1686   -7.8667 N.am      7 UNK        -0.4718 
     45 CA         26.4894    1.6186   -9.0368 C.3       7 UNK         0.0273 
     46 CB         24.9893    1.5007   -8.7211 C.3       7 UNK        -0.1935 
     47 C          27.0686    0.2651   -9.4928 C.2       7 UNK         0.5018 
     48 O          26.5845   -0.2772  -10.4879 O.2       7 UNK        -0.5186 
     49 N          28.0737   -0.2622   -8.7763 N.am      8 UNK        -0.4240 
     50 CA         28.8403   -1.4515   -9.1509 C.3       8 UNK         0.0235 
     51 CB         29.3320   -2.1540   -7.8693 C.3       8 UNK        -0.2000 
     52 C          29.9755   -1.0540  -10.1162 C.2       8 UNK         0.4941 
     53 O          29.7656   -0.2225  -11.0023 O.2       8 UNK        -0.5273 
     54 N          31.1825   -1.6035   -9.9285 N.am      9 UNK        -0.4262 
     55 CA         32.3872   -1.2938  -10.7114 C.3       9 UNK         0.0264 
     56 CB         33.3816   -2.4622  -10.5700 C.3       9 UNK        -0.1955 
     57 C          33.0169    0.0708  -10.3431 C.2       9 UNK         0.5031 
     58 O          34.2384    0.1618  -10.2063 O.2       9 UNK        -0.5390 
     59 N          32.1689    1.0988  -10.1775 N.am      10 UNK        -0.4204 
     60 CA         32.4699    2.4674   -9.7369 C.3       10 UNK         0.0237 
     61 CB         33.2065    3.2404  -10.8513 C.3       10 UNK        -0.1985 
     62 C          33.2112    2.5078   -8.3846 C.2       10 UNK         0.4970 
     63 O          34.1825    3.2518   -8.2351 O.2       10 UNK        -0.4914 
     64 N          32.7554    1.6830   -7.4330 N.am      11 UNK        -0.4285 
     65 CA         33.4306    1.4346   -6.1497 C.3       11 UNK         0.1007 
     66 C          33.2740    2.5654   -5.0894 C.2       11 UNK         0.5703 
     67 N          32.5329    3.6350   -5.3523 N.am      11 UNK        -0.7361 
     68 O          33.8451    2.4737   -4.0055 O.2       11 UNK        -0.4986 
     69 C69        33.0439    0.0557   -5.5544 C.3       12 UNK        -0.0947 
     70 S70        33.1922   -1.3376   -6.7253 S.3       12 UNK        -0.2240 
     71 C71        33.4296   -2.7404   -5.5904 C.3       12 UNK         0.0194 
     72 H72        24.9739   -1.5330   -8.3279 H         1 UNK         0.0906 
     73 H73        23.8257   -2.5306   -9.2136 H         1 UNK         0.0906 
     74 H74        23.2429   -1.4013   -7.9842 H         1 UNK         0.0906 
     75 H75        25.6028   -2.1267   -6.2016 H         1 UNK         0.3140 
     76 H76        25.0260   -4.9273   -5.3957 H         1 UNK         0.1085 
     77 H77        27.2011   -2.9139   -4.5869 H         1 UNK         0.0836 
     78 H78        26.9672   -4.4342   -3.7626 H         1 UNK         0.0836 
     79 H79        29.7434   -6.1822   -5.5192 H         1 UNK         0.0731 
     80 H80        28.7859   -5.9810   -4.0787 H         1 UNK         0.0731 
     81 H81        31.4688   -4.5606   -6.1522 H         1 UNK         0.1312 
     82 H82        32.6085   -1.6226   -3.2458 H         1 UNK         0.1406 
     83 H83        29.0134   -3.8771   -2.6961 H         1 UNK         0.1631 
     84 H84        31.3556   -1.2999   -1.2617 H         1 UNK         0.0717 
     85 H85        30.2929   -2.5899   -0.7596 H         1 UNK         0.0717 
     86 H86        29.5582    1.3783   -2.6797 H         1 UNK         0.0934 
     87 H87        30.5814    0.1476   -3.3628 H         1 UNK         0.0934 
     88 H88        28.6384   -0.7802   -4.6572 H         1 UNK         0.0739 
     89 H89        27.0665    0.9338   -2.9983 H         1 UNK         0.3093 
     90 H90        24.9069    1.8685   -3.8724 H         1 UNK         0.0818 
     91 H91        23.7526    1.3187   -5.9301 H         1 UNK         0.0819 
     92 H92        23.5201   -0.3561   -5.4500 H         1 UNK         0.0819 
     93 H93        22.6787    0.9374   -4.6005 H         1 UNK         0.0819 
     94 H94        23.9723   -0.7754   -2.9662 H         1 UNK         0.3041 
     95 H95        25.2847   -0.4927    0.2554 H         1 UNK         0.0784 
     96 H96        23.7266    1.4057    0.6506 H         1 UNK         0.0793 
     97 H97        22.4691    0.6016   -0.2782 H         1 UNK         0.0793 
     98 H98        23.0336   -0.0947    1.2416 H         1 UNK         0.0793 
     99 H99        22.9081   -1.7278   -0.9772 H         1 UNK         0.3024 
    100 H100       24.2445   -4.8502   -0.8607 H         1 UNK         0.1171 
    101 H101       21.9736   -4.9099   -1.8477 H         1 UNK         0.0786 
    102 H102       22.0167   -3.7899   -0.5020 H         1 UNK         0.0786 
    103 H103       22.0052   -3.1818   -2.1555 H         1 UNK         0.0786 
    104 H104       25.0128   -5.1803   -2.9175 H         1 UNK         0.2977 
    105 H105       28.0323    2.7284   -4.7276 H         1 UNK         0.3127 
    106 H106       29.9680    3.4017   -6.7171 H         1 UNK         0.0770 
    107 H107       27.3341    4.7797   -5.9582 H         1 UNK         0.0814 
    108 H108       28.6192    5.4948   -6.9207 H         1 UNK         0.0814 
    109 H109       28.9140    5.0955   -5.2375 H         1 UNK         0.0814 
    110 H110       26.8469    1.8485   -6.9668 H         1 UNK         0.2983 
    111 H111       26.6013    2.3084   -9.8764 H         1 UNK         0.0947 
    112 H112       24.4312    1.1475   -9.5892 H         1 UNK         0.0806 
    113 H113       24.5654    2.4630   -8.4343 H         1 UNK         0.0806 
    114 H114       24.8078    0.7971   -7.9106 H         1 UNK         0.0806 
    115 H115       28.4231    0.2557   -7.9795 H         1 UNK         0.3000 
    116 H116       28.1853   -2.1444   -9.6830 H         1 UNK         0.0850 
    117 H117       29.6811   -3.1655   -8.0793 H         1 UNK         0.0810 
    118 H118       28.5262   -2.2392   -7.1405 H         1 UNK         0.0810 
    119 H119       30.1464   -1.6178   -7.3821 H         1 UNK         0.0810 
    120 H120       31.3048   -2.2361   -9.1505 H         1 UNK         0.3040 
    121 H121       32.1047   -1.2314  -11.7645 H         1 UNK         0.0766 
    122 H122       33.7335   -2.5697   -9.5433 H         1 UNK         0.0812 
    123 H123       34.2585   -2.3099  -11.2007 H         1 UNK         0.0812 
    124 H124       32.9308   -3.4076  -10.8721 H         1 UNK         0.0812 
    125 H125       31.1899    0.8985  -10.3694 H         1 UNK         0.3205 
    126 H126       31.5088    2.9572   -9.5732 H         1 UNK         0.0754 
    127 H127       33.3424    4.2876  -10.5783 H         1 UNK         0.0769 
    128 H128       32.6441    3.2209  -11.7848 H         1 UNK         0.0769 
    129 H129       34.1949    2.8229  -11.0467 H         1 UNK         0.0769 
    130 H130       31.9357    1.1183   -7.6069 H         1 UNK         0.2981 
    131 H131       34.5005    1.3906   -6.3624 H         1 UNK         0.0541 
    132 H132       32.0986    3.7411   -6.2528 H         1 UNK         0.3459 
    133 H133       32.4502    4.3600   -4.6577 H         1 UNK         0.3459 
    134 H134       32.0200    0.0723   -5.1860 H         1 UNK         0.0612 
    135 H135       33.6791   -0.1557   -4.6931 H         1 UNK         0.0612 
    136 H136       33.7238   -3.6131   -6.1752 H         1 UNK         0.0624 
    137 H137       34.2638   -2.5313   -4.9191 H         1 UNK         0.0624 
@<TRIPOS>BOND
     1    1    2 1    
     2    1   72 1    
     3    1   73 1    
     4    1   74 1    
     5    2    3 2    
     6    2    4 am   BACKBONE|DICT|INTERRES
     7    4    5 1    
     8    4   75 1    
     9    5    6 1    
    10    5   35 1    
    11    5   76 1    
    12    6    7 1    
    13    6   77 1    
    14    6   78 1    
    15    7    8 1    
    16    8    9 1    
    17    8   79 1    
    18    8   80 1    
    19    9   10 ar   
    20    9   14 ar   
    21   10   11 ar   
    22   10   81 1    
    23   11   12 ar   
    24   11   71 1    
    25   12   13 ar   
    26   12   82 1    
    27   13   14 ar   
    28   13   15 1    
    29   14   83 1    
    30   15   16 1    
    31   15   84 1    
    32   15   85 1    
    33   16   17 1    
    34   17   18 1    
    35   17   86 1    
    36   17   87 1    
    37   18   19 1    
    38   18   37 1    
    39   18   88 1    
    40   19   20 am   BACKBONE|DICT|INTERRES
    41   19   89 1    
    42   20   21 2    
    43   20   22 1    
    44   22   23 1    
    45   22   24 1    
    46   22   90 1    
    47   23   91 1    
    48   23   92 1    
    49   23   93 1    
    50   24   25 am   BACKBONE|DICT|INTERRES
    51   24   94 1    
    52   25   26 2    
    53   25   27 1    
    54   27   28 1    
    55   27   29 1    
    56   27   95 1    
    57   28   96 1    
    58   28   97 1    
    59   28   98 1    
    60   29   30 am   BACKBONE|DICT|INTERRES
    61   29   99 1    
    62   30   31 2    
    63   30   32 1    
    64   32   33 1    
    65   32   34 1    
    66   32  100 1    
    67   33  101 1    
    68   33  102 1    
    69   33  103 1    
    70   34   35 am   BACKBONE|DICT|INTERRES
    71   34  104 1    
    72   35   36 2    
    73   37   38 2    
    74   37   39 am   BACKBONE|DICT|INTERRES
    75   39   40 1    
    76   39  105 1    
    77   40   41 1    
    78   40   42 1    
    79   40  106 1    
    80   41  107 1    
    81   41  108 1    
    82   41  109 1    
    83   42   43 2    
    84   42   44 am   BACKBONE|DICT|INTERRES
    85   44   45 1    
    86   44  110 1    
    87   45   46 1    
    88   45   47 1    
    89   45  111 1    
    90   46  112 1    
    91   46  113 1    
    92   46  114 1    
    93   47   48 2    
    94   47   49 am   BACKBONE|DICT|INTERRES
    95   49   50 1    
    96   49  115 1    
    97   50   51 1    
    98   50   52 1    
    99   50  116 1    
   100   51  117 1    
   101   51  118 1    
   102   51  119 1    
   103   52   53 2    
   104   52   54 am   BACKBONE|DICT|INTERRES
   105   54   55 1    
   106   54  120 1    
   107   55   56 1    
   108   55   57 1    
   109   55  121 1    
   110   56  122 1    
   111   56  123 1    
   112   56  124 1    
   113   57   58 2    
   114   57   59 am   BACKBONE|DICT|INTERRES
   115   59   60 1    
   116   59  125 1    
   117   60   61 1    
   118   60   62 1    
   119   60  126 1    
   120   61  127 1    
   121   61  128 1    
   122   61  129 1    
   123   62   63 2    
   124   62   64 am   BACKBONE|DICT|INTERRES
   125   64   65 1    
   126   64  130 1    
   127   65   66 1    
   128   65   69 1    
   129   65  131 1    
   130   66   67 am   BACKBONE|DICT|INTERRES
   131   66   68 2    
   132   67  132 1    
   133   67  133 1    
   134   69   70 1    
   135   69  134 1    
   136   69  135 1    
   137   70   71 1    
   138   71  136 1    
   139   71  137 1    
@<TRIPOS>SUBSTRUCTURE
     1 UNK         1 GROUP             0       ****    0 ROOT    
