@<TRIPOS>MOLECULE
3R137
137   139    1
SMALL
USER_CHARGES


@<TRIPOS>ATOM
      1 CA         25.6054   -5.2735   -2.1041 C.3       0 UNK        -0.2020 
      2 C          25.9025   -4.8919   -0.6617 C.2       0 UNK         0.4855 
      3 O          25.6905   -5.7019    0.2403 O.2       0 UNK        -0.5197 
      4 N          26.3749   -3.6602   -0.4369 N.am      1 UNK        -0.4892 
      5 CA         26.7412   -3.1186    0.8837 C.3       1 UNK         0.0835 
      6 C6         28.1169   -2.3881    0.8744 C.3       12 UNK        -0.0855 
      7 S7         29.4382   -3.2720   -0.0271 S.3       12 UNK        -0.2931 
      8 C8         29.5343   -2.2266   -1.5191 C.3       12 UNK         0.0378 
      9 C9         29.9491   -2.9913   -2.7682 C.ar      12 UNK        -0.0802 
     10 C10        30.9519   -2.4824   -3.5988 C.ar      12 UNK        -0.0944 
     11 C11        31.2945   -3.1417   -4.7824 C.ar      12 UNK        -0.0787 
     12 C12        30.6345   -4.3217   -5.1324 C.ar      12 UNK        -0.0862 
     13 C13        29.6216   -4.8338   -4.3167 C.ar      12 UNK        -0.0733 
     14 C14        29.2827   -4.1642   -3.1380 C.ar      12 UNK        -0.0832 
     15 C15        28.8918   -6.1103   -4.7046 C.3       12 UNK         0.0240 
     16 S16        27.2561   -5.7635   -5.4237 S.3       12 UNK        -0.2522 
     17 C17        27.6928   -4.9692   -7.0077 C.3       12 UNK        -0.0967 
     18 CA         27.1276   -3.5329   -7.1244 C.3       5 UNK         0.0660 
     19 N          27.5859   -2.6376   -6.0513 N.am      5 UNK        -0.4015 
     20 C          27.0170   -1.4549   -5.7770 C.2       4 UNK         0.4946 
     21 O          26.0587   -0.9936   -6.4011 O.2       4 UNK        -0.5353 
     22 CA         27.6384   -0.6248   -4.6441 C.3       4 UNK         0.0277 
     23 CB         28.5704    0.4589   -5.2096 C.3       4 UNK        -0.1981 
     24 N          26.5934    0.0059   -3.8349 N.am      4 UNK        -0.4209 
     25 C          25.8556   -0.6526   -2.9343 C.2       3 UNK         0.4942 
     26 O          26.0678   -1.8247   -2.6024 O.2       3 UNK        -0.5208 
     27 CA         24.6866    0.1147   -2.2973 C.3       3 UNK         0.0250 
     28 CB         23.5515    0.3572   -3.3093 C.3       3 UNK        -0.1990 
     29 N          24.2011   -0.6974   -1.1901 N.am      3 UNK        -0.4232 
     30 C          23.5317   -0.3045   -0.1010 C.2       2 UNK         0.4993 
     31 O          23.1176    0.8406    0.0809 O.2       2 UNK        -0.5286 
     32 CA         23.3162   -1.3824    0.9817 C.3       2 UNK         0.0209 
     33 CB         21.9549   -2.0721    0.7963 C.3       2 UNK        -0.1931 
     34 N          24.3827   -2.3918    0.9485 N.am      2 UNK        -0.4546 
     35 C          25.6271   -2.1794    1.4033 C.2       1 UNK         0.5154 
     36 O          25.9140   -1.2364    2.1436 O.2       1 UNK        -0.5181 
     37 C          27.4046   -2.9564   -8.5287 C.2       5 UNK         0.5014 
     38 O          26.6389   -3.2347   -9.4528 O.2       5 UNK        -0.5248 
     39 N          28.4682   -2.1521   -8.6596 N.am      6 UNK        -0.4434 
     40 CA         28.8070   -1.3947   -9.8610 C.3       6 UNK         0.0363 
     41 CB         30.1460   -1.8943  -10.4336 C.3       6 UNK        -0.1936 
     42 C          28.8221    0.0967   -9.5025 C.2       6 UNK         0.5081 
     43 O          29.8561    0.7579   -9.6104 O.2       6 UNK        -0.5248 
     44 N          27.6615    0.6119   -9.0744 N.am      7 UNK        -0.4718 
     45 CA         27.4461    2.0218   -8.7231 C.3       7 UNK         0.0273 
     46 CB         26.0394    2.1914   -8.1277 C.3       7 UNK        -0.1935 
     47 C          27.6567    2.9999   -9.8940 C.2       7 UNK         0.5018 
     48 O          28.0234    4.1494   -9.6536 O.2       7 UNK        -0.5186 
     49 N          27.4609    2.5221  -11.1322 N.am      8 UNK        -0.4240 
     50 CA         27.7601    3.2547  -12.3662 C.3       8 UNK         0.0235 
     51 CB         27.1366    2.5189  -13.5634 C.3       8 UNK        -0.2000 
     52 C          29.2700    3.4643  -12.5857 C.2       8 UNK         0.4941 
     53 O          29.6632    4.5127  -13.0982 O.2       8 UNK        -0.5273 
     54 N          30.0848    2.4779  -12.1824 N.am      9 UNK        -0.4262 
     55 CA         31.5480    2.5667  -12.1683 C.3       9 UNK         0.0264 
     56 CB         32.1453    1.1527  -12.2630 C.3       9 UNK        -0.1955 
     57 C          32.0702    3.2799  -10.9085 C.2       9 UNK         0.5031 
     58 O          33.1653    3.8416  -10.9510 O.2       9 UNK        -0.5390 
     59 N          31.2810    3.2290   -9.8244 N.am      10 UNK        -0.4204 
     60 CA         31.5525    3.7265   -8.4740 C.3       10 UNK         0.0237 
     61 CB         31.7539    5.2571   -8.4608 C.3       10 UNK        -0.1985 
     62 C          32.7045    2.9426   -7.8255 C.2       10 UNK         0.4970 
     63 O          33.7021    3.5336   -7.4080 O.2       10 UNK        -0.4914 
     64 N          32.5453    1.6124   -7.7823 N.am      11 UNK        -0.4285 
     65 CA         33.5371    0.6645   -7.2502 C.3       11 UNK         0.1007 
     66 C          33.8508    0.7837   -5.7277 C.2       11 UNK         0.5703 
     67 N          33.0220    1.4434   -4.9267 N.am      11 UNK        -0.7361 
     68 O          34.8696    0.2711   -5.2708 O.2       11 UNK        -0.4986 
     69 C69        33.2069   -0.7926   -7.6697 C.3       12 UNK        -0.0947 
     70 S70        31.6737   -1.4513   -6.9245 S.3       12 UNK        -0.2240 
     71 C71        32.3780   -2.5774   -5.6833 C.3       12 UNK         0.0194 
     72 H72        25.8746   -4.4816   -2.8028 H         1 UNK         0.0906 
     73 H73        26.1656   -6.1671   -2.3783 H         1 UNK         0.0906 
     74 H74        24.5440   -5.4864   -2.2268 H         1 UNK         0.0906 
     75 H75        26.4798   -3.0199   -1.2224 H         1 UNK         0.3140 
     76 H76        26.8148   -3.9347    1.6058 H         1 UNK         0.1085 
     77 H77        28.4604   -2.2434    1.9006 H         1 UNK         0.0836 
     78 H78        28.0198   -1.3818    0.4615 H         1 UNK         0.0836 
     79 H79        28.5623   -1.7774   -1.7172 H         1 UNK         0.0731 
     80 H80        30.2185   -1.4004   -1.3198 H         1 UNK         0.0731 
     81 H81        31.4581   -1.5633   -3.3352 H         1 UNK         0.1312 
     82 H82        30.9070   -4.8351   -6.0446 H         1 UNK         0.1406 
     83 H83        28.4943   -4.5534   -2.5089 H         1 UNK         0.1631 
     84 H84        28.7612   -6.7361   -3.8204 H         1 UNK         0.0717 
     85 H85        29.4824   -6.6990   -5.4085 H         1 UNK         0.0717 
     86 H86        27.2866   -5.5978   -7.8030 H         1 UNK         0.0934 
     87 H87        28.7735   -4.9755   -7.1525 H         1 UNK         0.0934 
     88 H88        26.0413   -3.6061   -7.0325 H         1 UNK         0.0739 
     89 H89        28.3505   -2.9728   -5.4811 H         1 UNK         0.3093 
     90 H90        28.2266   -1.2855   -4.0097 H         1 UNK         0.0818 
     91 H91        29.0776    0.9999   -4.4106 H         1 UNK         0.0819 
     92 H92        29.3422    0.0233   -5.8438 H         1 UNK         0.0819 
     93 H93        28.0247    1.1842   -5.8124 H         1 UNK         0.0819 
     94 H94        26.3356    0.9495   -4.0841 H         1 UNK         0.3041 
     95 H95        25.0592    1.0660   -1.9120 H         1 UNK         0.0784 
     96 H96        23.8902    0.9698   -4.1456 H         1 UNK         0.0793 
     97 H97        23.1758   -0.5799   -3.7224 H         1 UNK         0.0793 
     98 H98        22.7126    0.8785   -2.8477 H         1 UNK         0.0793 
     99 H99        24.5355   -1.6510   -1.2374 H         1 UNK         0.3024 
    100 H100       23.3240   -0.8845    1.9544 H         1 UNK         0.1171 
    101 H101       21.7719   -2.8051    1.5822 H         1 UNK         0.0786 
    102 H102       21.8864   -2.5844   -0.1643 H         1 UNK         0.0786 
    103 H103       21.1423   -1.3453    0.8368 H         1 UNK         0.0786 
    104 H104       24.2222   -3.2154    0.3860 H         1 UNK         0.2977 
    105 H105       29.0378   -1.9641   -7.8460 H         1 UNK         0.3127 
    106 H106       28.0453   -1.5265  -10.6322 H         1 UNK         0.0770 
    107 H107       30.9745   -1.7260   -9.7473 H         1 UNK         0.0814 
    108 H108       30.3846   -1.3805  -11.3651 H         1 UNK         0.0814 
    109 H109       30.1073   -2.9608  -10.6546 H         1 UNK         0.0814 
    110 H110       26.8685   -0.0066   -8.9688 H         1 UNK         0.2983 
    111 H111       28.1773    2.2860   -7.9566 H         1 UNK         0.0947 
    112 H112       25.8582    3.2285   -7.8416 H         1 UNK         0.0806 
    113 H113       25.9097    1.5846   -7.2318 H         1 UNK         0.0806 
    114 H114       25.2626    1.9087   -8.8392 H         1 UNK         0.0806 
    115 H115       27.1306    1.5730  -11.2286 H         1 UNK         0.3000 
    116 H116       27.2977    4.2417  -12.2929 H         1 UNK         0.0850 
    117 H117       27.3266    3.0577  -14.4929 H         1 UNK         0.0810 
    118 H118       26.0550    2.4328  -13.4570 H         1 UNK         0.0810 
    119 H119       27.5446    1.5141  -13.6806 H         1 UNK         0.0810 
    120 H120       29.6805    1.6573  -11.7531 H         1 UNK         0.3040 
    121 H121       31.8798    3.1361  -13.0394 H         1 UNK         0.0766 
    122 H122       31.9034    0.5505  -11.3869 H         1 UNK         0.0812 
    123 H123       31.7853    0.6252  -13.1463 H         1 UNK         0.0812 
    124 H124       33.2330    1.1964  -12.3329 H         1 UNK         0.0812 
    125 H125       30.4647    2.6315   -9.8979 H         1 UNK         0.3205 
    126 H126       30.6602    3.5113   -7.8842 H         1 UNK         0.0754 
    127 H127       31.8454    5.6272   -7.4391 H         1 UNK         0.0769 
    128 H128       30.9064    5.7690   -8.9172 H         1 UNK         0.0769 
    129 H129       32.6553    5.5580   -8.9953 H         1 UNK         0.0769 
    130 H130       31.7011    1.2034   -8.1614 H         1 UNK         0.2981 
    131 H131       34.4755    0.9174   -7.7474 H         1 UNK         0.0541 
    132 H132       33.2403    1.5203   -3.9464 H         1 UNK         0.3459 
    133 H133       32.1851    1.8642   -5.2941 H         1 UNK         0.3459 
    134 H134       33.0988   -0.8435   -8.7541 H         1 UNK         0.0612 
    135 H135       34.0432   -1.4529   -7.4333 H         1 UNK         0.0612 
    136 H136       32.9090   -3.3857   -6.1885 H         1 UNK         0.0624 
    137 H137       33.1192   -2.0482   -5.0829 H         1 UNK         0.0624 
@<TRIPOS>BOND
     1    1    2 1    
     2    1   72 1    
     3    1   73 1    
     4    1   74 1    
     5    2    3 2    
     6    2    4 am   BACKBONE|DICT|INTERRES
     7    4    5 1    
     8    4   75 1    
     9    5    6 1    
    10    5   35 1    
    11    5   76 1    
    12    6    7 1    
    13    6   77 1    
    14    6   78 1    
    15    7    8 1    
    16    8    9 1    
    17    8   79 1    
    18    8   80 1    
    19    9   10 ar   
    20    9   14 ar   
    21   10   11 ar   
    22   10   81 1    
    23   11   12 ar   
    24   11   71 1    
    25   12   13 ar   
    26   12   82 1    
    27   13   14 ar   
    28   13   15 1    
    29   14   83 1    
    30   15   16 1    
    31   15   84 1    
    32   15   85 1    
    33   16   17 1    
    34   17   18 1    
    35   17   86 1    
    36   17   87 1    
    37   18   19 1    
    38   18   37 1    
    39   18   88 1    
    40   19   20 am   BACKBONE|DICT|INTERRES
    41   19   89 1    
    42   20   21 2    
    43   20   22 1    
    44   22   23 1    
    45   22   24 1    
    46   22   90 1    
    47   23   91 1    
    48   23   92 1    
    49   23   93 1    
    50   24   25 am   BACKBONE|DICT|INTERRES
    51   24   94 1    
    52   25   26 2    
    53   25   27 1    
    54   27   28 1    
    55   27   29 1    
    56   27   95 1    
    57   28   96 1    
    58   28   97 1    
    59   28   98 1    
    60   29   30 am   BACKBONE|DICT|INTERRES
    61   29   99 1    
    62   30   31 2    
    63   30   32 1    
    64   32   33 1    
    65   32   34 1    
    66   32  100 1    
    67   33  101 1    
    68   33  102 1    
    69   33  103 1    
    70   34   35 am   BACKBONE|DICT|INTERRES
    71   34  104 1    
    72   35   36 2    
    73   37   38 2    
    74   37   39 am   BACKBONE|DICT|INTERRES
    75   39   40 1    
    76   39  105 1    
    77   40   41 1    
    78   40   42 1    
    79   40  106 1    
    80   41  107 1    
    81   41  108 1    
    82   41  109 1    
    83   42   43 2    
    84   42   44 am   BACKBONE|DICT|INTERRES
    85   44   45 1    
    86   44  110 1    
    87   45   46 1    
    88   45   47 1    
    89   45  111 1    
    90   46  112 1    
    91   46  113 1    
    92   46  114 1    
    93   47   48 2    
    94   47   49 am   BACKBONE|DICT|INTERRES
    95   49   50 1    
    96   49  115 1    
    97   50   51 1    
    98   50   52 1    
    99   50  116 1    
   100   51  117 1    
   101   51  118 1    
   102   51  119 1    
   103   52   53 2    
   104   52   54 am   BACKBONE|DICT|INTERRES
   105   54   55 1    
   106   54  120 1    
   107   55   56 1    
   108   55   57 1    
   109   55  121 1    
   110   56  122 1    
   111   56  123 1    
   112   56  124 1    
   113   57   58 2    
   114   57   59 am   BACKBONE|DICT|INTERRES
   115   59   60 1    
   116   59  125 1    
   117   60   61 1    
   118   60   62 1    
   119   60  126 1    
   120   61  127 1    
   121   61  128 1    
   122   61  129 1    
   123   62   63 2    
   124   62   64 am   BACKBONE|DICT|INTERRES
   125   64   65 1    
   126   64  130 1    
   127   65   66 1    
   128   65   69 1    
   129   65  131 1    
   130   66   67 am   BACKBONE|DICT|INTERRES
   131   66   68 2    
   132   67  132 1    
   133   67  133 1    
   134   69   70 1    
   135   69  134 1    
   136   69  135 1    
   137   70   71 1    
   138   71  136 1    
   139   71  137 1    
@<TRIPOS>SUBSTRUCTURE
     1 UNK         1 GROUP             0       ****    0 ROOT    
