@<TRIPOS>MOLECULE
3R137
137   139    1
SMALL
USER_CHARGES


@<TRIPOS>ATOM
      1 CA         27.6727    0.3034    3.5775 C.3       0 UNK        -0.2020 
      2 C          27.5156    0.5707    2.0882 C.2       0 UNK         0.4855 
      3 O          26.9176    1.5767    1.7063 O.2       0 UNK        -0.5197 
      4 N          28.0505   -0.3212    1.2445 N.am      1 UNK        -0.4892 
      5 CA         27.9717   -0.2555   -0.2208 C.3       1 UNK         0.0835 
      6 C6         29.0102   -1.1824   -0.9033 C.3       12 UNK        -0.0855 
      7 S7         29.1058   -2.8740   -0.2027 S.3       12 UNK        -0.2931 
      8 C8         28.5314   -3.9165   -1.5905 C.3       12 UNK         0.0378 
      9 C9         29.4569   -4.0091   -2.8100 C.ar      12 UNK        -0.0802 
     10 C10        30.6480   -3.2767   -2.9284 C.ar      12 UNK        -0.0944 
     11 C11        31.4078   -3.3314   -4.0989 C.ar      12 UNK        -0.0787 
     12 C12        31.0030   -4.1585   -5.1463 C.ar      12 UNK        -0.0862 
     13 C13        29.8162   -4.8884   -5.0518 C.ar      12 UNK        -0.0733 
     14 C14        29.0616   -4.8267   -3.8764 C.ar      12 UNK        -0.0832 
     15 C15        29.3036   -5.6506   -6.2671 C.3       12 UNK         0.0240 
     16 S16        28.0302   -4.7107   -7.1881 S.3       12 UNK        -0.2522 
     17 C17        28.6761   -3.0012   -7.1141 C.3       12 UNK        -0.0967 
     18 CA         27.8633   -1.9465   -7.9038 C.3       5 UNK         0.0660 
     19 N          26.4239   -2.0765   -7.6678 N.am      5 UNK        -0.4015 
     20 C          25.4563   -1.2627   -8.1124 C.2       4 UNK         0.4946 
     21 O          25.6519   -0.3184   -8.8766 O.2       4 UNK        -0.5353 
     22 CA         24.0354   -1.5068   -7.5698 C.3       4 UNK         0.0277 
     23 CB         23.1783   -2.2276   -8.6220 C.3       4 UNK        -0.1981 
     24 N          23.9945   -2.2587   -6.3072 N.am      4 UNK        -0.4209 
     25 C          24.5561   -1.8650   -5.1549 C.2       3 UNK         0.4942 
     26 O          25.1806   -0.8093   -5.0170 O.2       3 UNK        -0.5208 
     27 CA         24.4816   -2.8621   -3.9962 C.3       3 UNK         0.0250 
     28 CB         25.6009   -3.9103   -4.1276 C.3       3 UNK        -0.1990 
     29 N          24.6177   -2.1399   -2.7352 N.am      3 UNK        -0.4232 
     30 C          24.1732   -2.5587   -1.5461 C.2       2 UNK         0.4993 
     31 O          23.6494   -3.6604   -1.3675 O.2       2 UNK        -0.5286 
     32 CA         24.3430   -1.5860   -0.3611 C.3       2 UNK         0.0209 
     33 CB         23.6574   -2.0898    0.9235 C.3       2 UNK        -0.1931 
     34 N          25.7481   -1.3032   -0.0585 N.am      2 UNK        -0.4546 
     35 C          26.5466   -0.4895   -0.7624 C.2       1 UNK         0.5154 
     36 O          26.1881    0.0874   -1.7895 O.2       1 UNK        -0.5181 
     37 C          28.3977   -0.5471   -7.5324 C.2       5 UNK         0.5014 
     38 O          29.2112    0.0080   -8.2713 O.2       5 UNK        -0.5248 
     39 N          27.9281   -0.0067   -6.3967 N.am      6 UNK        -0.4434 
     40 CA         28.3230    1.3052   -5.8860 C.3       6 UNK         0.0363 
     41 CB         27.9379    1.4155   -4.4031 C.3       6 UNK        -0.1936 
     42 C          27.7091    2.4543   -6.6995 C.2       6 UNK         0.5081 
     43 O          28.3798    3.4633   -6.9129 O.2       6 UNK        -0.5248 
     44 N          26.4680    2.2710   -7.1739 N.am      7 UNK        -0.4718 
     45 CA         25.7741    3.2088   -8.0629 C.3       7 UNK         0.0273 
     46 CB         24.2798    2.8539   -8.1292 C.3       7 UNK        -0.1935 
     47 C          26.3967    3.2404   -9.4692 C.2       7 UNK         0.5018 
     48 O          26.5210    4.3159  -10.0554 O.2       7 UNK        -0.5186 
     49 N          26.8141    2.0661   -9.9623 N.am      8 UNK        -0.4240 
     50 CA         27.5689    1.8913  -11.2059 C.3       8 UNK         0.0235 
     51 CB         27.5148    0.4078  -11.6090 C.3       8 UNK        -0.2000 
     52 C          29.0342    2.3622  -11.1139 C.2       8 UNK         0.4941 
     53 O          29.6749    2.5081  -12.1556 O.2       8 UNK        -0.5273 
     54 N          29.5394    2.5641   -9.8863 N.am      9 UNK        -0.4262 
     55 CA         30.9227    2.8946   -9.5225 C.3       9 UNK         0.0264 
     56 CB         31.3186    4.2915  -10.0457 C.3       9 UNK        -0.1955 
     57 C          31.9214    1.7901   -9.9235 C.2       9 UNK         0.5031 
     58 O          33.0504    2.0867  -10.3201 O.2       9 UNK        -0.5390 
     59 N          31.4917    0.5269   -9.7976 N.am      10 UNK        -0.4204 
     60 CA         32.2664   -0.6667  -10.1467 C.3       10 UNK         0.0237 
     61 CB         31.3073   -1.8604  -10.2846 C.3       10 UNK        -0.1985 
     62 C          33.3888   -0.9861   -9.1429 C.2       10 UNK         0.4970 
     63 O          34.2950   -1.7474   -9.4831 O.2       10 UNK        -0.4914 
     64 N          33.3123   -0.4116   -7.9355 N.am      11 UNK        -0.4285 
     65 CA         34.2996   -0.5690   -6.8557 C.3       11 UNK         0.1007 
     66 C          35.6695    0.1231   -7.1203 C.2       11 UNK         0.5703 
     67 N          35.7962    0.9975   -8.1126 N.am      11 UNK        -0.7361 
     68 O          36.6372   -0.1440   -6.4119 O.2       11 UNK        -0.4986 
     69 C69        33.7269   -0.1386   -5.4776 C.3       12 UNK        -0.0947 
     70 S70        32.1103   -0.8905   -5.0995 S.3       12 UNK        -0.2240 
     71 C71        32.6170   -2.4302   -4.2750 C.3       12 UNK         0.0194 
     72 H72        28.2061    1.1265    4.0522 H         1 UNK         0.0906 
     73 H73        26.6938    0.2153    4.0479 H         1 UNK         0.0906 
     74 H74        28.2259   -0.6154    3.7714 H         1 UNK         0.0906 
     75 H75        28.5373   -1.1304    1.6071 H         1 UNK         0.3140 
     76 H76        28.2238    0.7687   -0.5063 H         1 UNK         0.1085 
     77 H77        28.8404   -1.2274   -1.9813 H         1 UNK         0.0836 
     78 H78        30.0002   -0.7377   -0.7907 H         1 UNK         0.0836 
     79 H79        28.3689   -4.9237   -1.2042 H         1 UNK         0.0731 
     80 H80        27.5551   -3.5493   -1.9087 H         1 UNK         0.0731 
     81 H81        30.9796   -2.6247   -2.1348 H         1 UNK         0.1312 
     82 H82        31.5757   -4.1762   -6.0637 H         1 UNK         0.1406 
     83 H83        28.1354   -5.3818   -3.8139 H         1 UNK         0.1631 
     84 H84        28.8857   -6.6090   -5.9558 H         1 UNK         0.0717 
     85 H85        30.1276   -5.8827   -6.9437 H         1 UNK         0.0717 
     86 H86        28.7073   -2.7196   -6.0592 H         1 UNK         0.0934 
     87 H87        29.7117   -3.0089   -7.4574 H         1 UNK         0.0934 
     88 H88        28.0300   -2.0991   -8.9717 H         1 UNK         0.0739 
     89 H89        26.1554   -2.8486   -7.0766 H         1 UNK         0.3093 
     90 H90        23.5941   -0.5259   -7.3812 H         1 UNK         0.0818 
     91 H91        22.1422   -2.3204   -8.2959 H         1 UNK         0.0819 
     92 H92        23.1703   -1.6751   -9.5630 H         1 UNK         0.0819 
     93 H93        23.5562   -3.2283   -8.8357 H         1 UNK         0.0819 
     94 H94        23.5130   -3.1468   -6.3311 H         1 UNK         0.3041 
     95 H95        23.5074   -3.3553   -4.0214 H         1 UNK         0.0784 
     96 H96        25.4862   -4.5009   -5.0372 H         1 UNK         0.0793 
     97 H97        26.5813   -3.4349   -4.1688 H         1 UNK         0.0793 
     98 H98        25.5974   -4.6081   -3.2901 H         1 UNK         0.0793 
     99 H99        25.0556   -1.2230   -2.8063 H         1 UNK         0.3024 
    100 H100       23.8563   -0.6508   -0.6482 H         1 UNK         0.1171 
    101 H101       22.5970   -2.2806    0.7521 H         1 UNK         0.0786 
    102 H102       23.7257   -1.3535    1.7246 H         1 UNK         0.0786 
    103 H103       24.1027   -3.0188    1.2822 H         1 UNK         0.0786 
    104 H104       26.1377   -1.7531    0.7571 H         1 UNK         0.2977 
    105 H105       27.2167   -0.5006   -5.8700 H         1 UNK         0.3127 
    106 H106       29.4099    1.3870   -5.9605 H         1 UNK         0.0770 
    107 H107       28.2458    2.3767   -3.9898 H         1 UNK         0.0814 
    108 H108       28.4195    0.6384   -3.8094 H         1 UNK         0.0814 
    109 H109       26.8605    1.3272   -4.2564 H         1 UNK         0.0814 
    110 H110       26.0005    1.3979   -6.9742 H         1 UNK         0.2983 
    111 H111       25.8676    4.2107   -7.6376 H         1 UNK         0.0947 
    112 H112       23.7388    3.5698   -8.7494 H         1 UNK         0.0806 
    113 H113       23.8227    2.8732   -7.1397 H         1 UNK         0.0806 
    114 H114       24.1137    1.8648   -8.5568 H         1 UNK         0.0806 
    115 H115       26.5831    1.2188   -9.4468 H         1 UNK         0.3000 
    116 H116       27.0836    2.4804  -11.9869 H         1 UNK         0.0850 
    117 H117       28.0291    0.2388  -12.5560 H         1 UNK         0.0810 
    118 H118       26.4865    0.0672  -11.7325 H         1 UNK         0.0810 
    119 H119       27.9894   -0.2288  -10.8613 H         1 UNK         0.0810 
    120 H120       28.9225    2.3884   -9.1044 H         1 UNK         0.3040 
    121 H121       30.9424    2.9359   -8.4324 H         1 UNK         0.0766 
    122 H122       32.2915    4.5930   -9.6558 H         1 UNK         0.0812 
    123 H123       30.5976    5.0485   -9.7369 H         1 UNK         0.0812 
    124 H124       31.3849    4.3140  -11.1338 H         1 UNK         0.0812 
    125 H125       30.5708    0.3690   -9.3863 H         1 UNK         0.3205 
    126 H126       32.7373   -0.4935  -11.1167 H         1 UNK         0.0754 
    127 H127       31.8411   -2.7576  -10.6007 H         1 UNK         0.0769 
    128 H128       30.5335   -1.6646  -11.0274 H         1 UNK         0.0769 
    129 H129       30.8150   -2.0894   -9.3401 H         1 UNK         0.0769 
    130 H130       32.5231    0.1818   -7.7314 H         1 UNK         0.2981 
    131 H131       34.5199   -1.6361   -6.7907 H         1 UNK         0.0541 
    132 H132       35.0107    1.2215   -8.7047 H         1 UNK         0.3459 
    133 H133       36.6899    1.4344   -8.2734 H         1 UNK         0.3459 
    134 H134       34.4244   -0.3842   -4.6746 H         1 UNK         0.0612 
    135 H135       33.5980    0.9449   -5.4461 H         1 UNK         0.0612 
    136 H136       33.0724   -2.1986   -3.3109 H         1 UNK         0.0624 
    137 H137       33.3775   -2.9362   -4.8716 H         1 UNK         0.0624 
@<TRIPOS>BOND
     1    1    2 1    
     2    1   72 1    
     3    1   73 1    
     4    1   74 1    
     5    2    3 2    
     6    2    4 am   BACKBONE|DICT|INTERRES
     7    4    5 1    
     8    4   75 1    
     9    5    6 1    
    10    5   35 1    
    11    5   76 1    
    12    6    7 1    
    13    6   77 1    
    14    6   78 1    
    15    7    8 1    
    16    8    9 1    
    17    8   79 1    
    18    8   80 1    
    19    9   10 ar   
    20    9   14 ar   
    21   10   11 ar   
    22   10   81 1    
    23   11   12 ar   
    24   11   71 1    
    25   12   13 ar   
    26   12   82 1    
    27   13   14 ar   
    28   13   15 1    
    29   14   83 1    
    30   15   16 1    
    31   15   84 1    
    32   15   85 1    
    33   16   17 1    
    34   17   18 1    
    35   17   86 1    
    36   17   87 1    
    37   18   19 1    
    38   18   37 1    
    39   18   88 1    
    40   19   20 am   BACKBONE|DICT|INTERRES
    41   19   89 1    
    42   20   21 2    
    43   20   22 1    
    44   22   23 1    
    45   22   24 1    
    46   22   90 1    
    47   23   91 1    
    48   23   92 1    
    49   23   93 1    
    50   24   25 am   BACKBONE|DICT|INTERRES
    51   24   94 1    
    52   25   26 2    
    53   25   27 1    
    54   27   28 1    
    55   27   29 1    
    56   27   95 1    
    57   28   96 1    
    58   28   97 1    
    59   28   98 1    
    60   29   30 am   BACKBONE|DICT|INTERRES
    61   29   99 1    
    62   30   31 2    
    63   30   32 1    
    64   32   33 1    
    65   32   34 1    
    66   32  100 1    
    67   33  101 1    
    68   33  102 1    
    69   33  103 1    
    70   34   35 am   BACKBONE|DICT|INTERRES
    71   34  104 1    
    72   35   36 2    
    73   37   38 2    
    74   37   39 am   BACKBONE|DICT|INTERRES
    75   39   40 1    
    76   39  105 1    
    77   40   41 1    
    78   40   42 1    
    79   40  106 1    
    80   41  107 1    
    81   41  108 1    
    82   41  109 1    
    83   42   43 2    
    84   42   44 am   BACKBONE|DICT|INTERRES
    85   44   45 1    
    86   44  110 1    
    87   45   46 1    
    88   45   47 1    
    89   45  111 1    
    90   46  112 1    
    91   46  113 1    
    92   46  114 1    
    93   47   48 2    
    94   47   49 am   BACKBONE|DICT|INTERRES
    95   49   50 1    
    96   49  115 1    
    97   50   51 1    
    98   50   52 1    
    99   50  116 1    
   100   51  117 1    
   101   51  118 1    
   102   51  119 1    
   103   52   53 2    
   104   52   54 am   BACKBONE|DICT|INTERRES
   105   54   55 1    
   106   54  120 1    
   107   55   56 1    
   108   55   57 1    
   109   55  121 1    
   110   56  122 1    
   111   56  123 1    
   112   56  124 1    
   113   57   58 2    
   114   57   59 am   BACKBONE|DICT|INTERRES
   115   59   60 1    
   116   59  125 1    
   117   60   61 1    
   118   60   62 1    
   119   60  126 1    
   120   61  127 1    
   121   61  128 1    
   122   61  129 1    
   123   62   63 2    
   124   62   64 am   BACKBONE|DICT|INTERRES
   125   64   65 1    
   126   64  130 1    
   127   65   66 1    
   128   65   69 1    
   129   65  131 1    
   130   66   67 am   BACKBONE|DICT|INTERRES
   131   66   68 2    
   132   67  132 1    
   133   67  133 1    
   134   69   70 1    
   135   69  134 1    
   136   69  135 1    
   137   70   71 1    
   138   71  136 1    
   139   71  137 1    
@<TRIPOS>SUBSTRUCTURE
     1 UNK         1 GROUP             0       ****    0 ROOT    
