@<TRIPOS>MOLECULE
3R137
137   139    1
SMALL
USER_CHARGES


@<TRIPOS>ATOM
      1 CA         23.0836   -5.4153   -3.5160 C.3       0 UNK        -0.2020 
      2 C          24.5638   -5.0705   -3.4438 C.2       0 UNK         0.4855 
      3 O          25.2404   -5.0960   -4.4707 O.2       0 UNK        -0.5197 
      4 N          25.0583   -4.7582   -2.2369 N.am      1 UNK        -0.4892 
      5 CA         26.4194   -4.3003   -1.9186 C.3       1 UNK         0.0835 
      6 C6         27.5345   -5.2488   -2.4501 C.3       12 UNK        -0.0855 
      7 S7         29.0560   -5.2004   -1.4369 S.3       12 UNK        -0.2931 
      8 C8         30.3365   -5.7035   -2.6332 C.3       12 UNK         0.0378 
      9 C9         30.7044   -4.5902   -3.6068 C.ar      12 UNK        -0.0802 
     10 C10        31.6009   -3.5847   -3.2267 C.ar      12 UNK        -0.0944 
     11 C11        31.9704   -2.5833   -4.1315 C.ar      12 UNK        -0.0787 
     12 C12        31.4170   -2.5790   -5.4128 C.ar      12 UNK        -0.0862 
     13 C13        30.5178   -3.5716   -5.8061 C.ar      12 UNK        -0.0733 
     14 C14        30.1803   -4.5866   -4.9034 C.ar      12 UNK        -0.0832 
     15 C15        29.9087   -3.5180   -7.2040 C.3       12 UNK         0.0240 
     16 S16        28.1021   -3.7625   -7.2213 S.3       12 UNK        -0.2522 
     17 C17        27.5356   -2.6051   -5.9283 C.3       12 UNK        -0.0967 
     18 CA         26.7733   -1.3833   -6.4845 C.3       5 UNK         0.0660 
     19 N          25.7368   -0.9502   -5.5453 N.am      5 UNK        -0.4015 
     20 C          24.7450   -0.0904   -5.8118 C.2       4 UNK         0.4946 
     21 O          24.6523    0.5448   -6.8627 O.2       4 UNK        -0.5353 
     22 CA         23.6829    0.0875   -4.7176 C.3       4 UNK         0.0277 
     23 CB         22.7216   -1.1133   -4.7019 C.3       4 UNK        -0.1981 
     24 N          24.3132    0.2194   -3.4039 N.am      4 UNK        -0.4209 
     25 C          24.4778    1.3775   -2.7515 C.2       3 UNK         0.4942 
     26 O          24.0110    2.4530   -3.1293 O.2       3 UNK        -0.5208 
     27 CA         25.3182    1.3431   -1.4596 C.3       3 UNK         0.0250 
     28 CB         24.4084    1.1638   -0.2335 C.3       3 UNK        -0.1990 
     29 N          26.3654    0.3148   -1.4378 N.am      3 UNK        -0.4232 
     30 C          27.3628    0.2091   -2.3278 C.2       2 UNK         0.4993 
     31 O          27.5021    0.9531   -3.2959 O.2       2 UNK        -0.5286 
     32 CA         28.3471   -0.9545   -2.1385 C.3       2 UNK         0.0209 
     33 CB         29.3620   -0.6049   -1.0390 C.3       2 UNK        -0.1931 
     34 N          27.7566   -2.2627   -1.8295 N.am      2 UNK        -0.4546 
     35 C          26.6501   -2.8287   -2.3314 C.2       1 UNK         0.5154 
     36 O          25.8461   -2.2431   -3.0636 O.2       1 UNK        -0.5181 
     37 C          27.7263   -0.2574   -6.9400 C.2       5 UNK         0.5014 
     38 O          28.3015   -0.3725   -8.0218 O.2       5 UNK        -0.5248 
     39 N          27.8322    0.8406   -6.1738 N.am      6 UNK        -0.4434 
     40 CA         28.5394    2.0688   -6.5591 C.3       6 UNK         0.0363 
     41 CB         28.4085    3.1110   -5.4367 C.3       6 UNK        -0.1936 
     42 C          28.0654    2.6873   -7.8878 C.2       6 UNK         0.5081 
     43 O          28.8611    3.3370   -8.5661 O.2       6 UNK        -0.5248 
     44 N          26.7935    2.4633   -8.2499 N.am      7 UNK        -0.4718 
     45 CA         26.2275    2.8577   -9.5409 C.3       7 UNK         0.0273 
     46 CB         24.6937    2.8546   -9.4388 C.3       7 UNK        -0.1935 
     47 C          26.6916    1.9623  -10.7061 C.2       7 UNK         0.5018 
     48 O          26.5653    2.3813  -11.8577 O.2       7 UNK        -0.5186 
     49 N          27.1984    0.7576  -10.4049 N.am      8 UNK        -0.4240 
     50 CA         27.7068   -0.1977  -11.3842 C.3       8 UNK         0.0235 
     51 CB         27.3565   -1.6361  -10.9603 C.3       8 UNK        -0.2000 
     52 C          29.2172   -0.0210  -11.5828 C.2       8 UNK         0.4941 
     53 O          29.6360    0.2338  -12.7134 O.2       8 UNK        -0.5273 
     54 N          30.0118   -0.1608  -10.5098 N.am      9 UNK        -0.4262 
     55 CA         31.4761   -0.1409  -10.5742 C.3       9 UNK         0.0264 
     56 CB         31.9910   -1.4206  -11.2719 C.3       9 UNK        -0.1955 
     57 C          32.1031   -0.0374   -9.1785 C.2       9 UNK         0.5031 
     58 O          31.4439   -0.3300   -8.1801 O.2       9 UNK        -0.5390 
     59 N          33.3982    0.3117   -9.1608 N.am      10 UNK        -0.4204 
     60 CA         34.3749    0.2473   -8.0620 C.3       10 UNK         0.0237 
     61 CB         34.6303   -1.2138   -7.6406 C.3       10 UNK        -0.1985 
     62 C          34.0888    1.1298   -6.8348 C.2       10 UNK         0.4970 
     63 O          34.9623    1.9015   -6.4374 O.2       10 UNK        -0.4914 
     64 N          32.8994    0.9869   -6.2461 N.am      11 UNK        -0.4285 
     65 CA         32.4617    1.6984   -5.0361 C.3       11 UNK         0.1007 
     66 C          31.9474    3.1443   -5.2982 C.2       11 UNK         0.5703 
     67 N          31.8287    3.5979   -6.5406 N.am      11 UNK        -0.7361 
     68 O          31.6705    3.8775   -4.3524 O.2       11 UNK        -0.4986 
     69 C69        31.4603    0.8312   -4.2162 C.3       12 UNK        -0.0947 
     70 S70        32.2899   -0.1061   -2.8874 S.3       12 UNK        -0.2240 
     71 C71        33.0072   -1.5368   -3.7505 C.3       12 UNK         0.0194 
     72 H72        22.5716   -4.7246   -4.1856 H         1 UNK         0.0906 
     73 H73        22.9524   -6.4253   -3.9033 H         1 UNK         0.0906 
     74 H74        22.6015   -5.3608   -2.5401 H         1 UNK         0.0906 
     75 H75        24.4225   -4.7479   -1.4510 H         1 UNK         0.3140 
     76 H76        26.4565   -4.3162   -0.8277 H         1 UNK         0.1085 
     77 H77        27.1824   -6.2815   -2.4369 H         1 UNK         0.0836 
     78 H78        27.7650   -5.0292   -3.4935 H         1 UNK         0.0836 
     79 H79        30.0022   -6.5928   -3.1700 H         1 UNK         0.0731 
     80 H80        31.2283   -6.0043   -2.0812 H         1 UNK         0.0731 
     81 H81        32.0246   -3.5916   -2.2316 H         1 UNK         0.1312 
     82 H82        31.6907   -1.8007   -6.1092 H         1 UNK         0.1406 
     83 H83        29.4934   -5.3643   -5.2085 H         1 UNK         0.1631 
     84 H84        30.3767   -4.2817   -7.8259 H         1 UNK         0.0717 
     85 H85        30.1199   -2.5598   -7.6801 H         1 UNK         0.0717 
     86 H86        26.8722   -3.2033   -5.3045 H         1 UNK         0.0934 
     87 H87        28.3419   -2.2927   -5.2646 H         1 UNK         0.0934 
     88 H88        26.2346   -1.7021   -7.3797 H         1 UNK         0.0739 
     89 H89        25.7360   -1.4251   -4.6443 H         1 UNK         0.3093 
     90 H90        23.1035    0.9819   -4.9568 H         1 UNK         0.0818 
     91 H91        21.9275   -0.9722   -3.9686 H         1 UNK         0.0819 
     92 H92        22.2450   -1.2445   -5.6743 H         1 UNK         0.0819 
     93 H93        23.2361   -2.0448   -4.4609 H         1 UNK         0.0819 
     94 H94        24.7648   -0.6108   -3.0315 H         1 UNK         0.3041 
     95 H95        25.8170    2.3111   -1.3769 H         1 UNK         0.0784 
     96 H96        23.6332    1.9311   -0.2070 H         1 UNK         0.0793 
     97 H97        23.9076    0.1948   -0.2411 H         1 UNK         0.0793 
     98 H98        24.9724    1.2449    0.6959 H         1 UNK         0.0793 
     99 H99        26.3236   -0.3621   -0.6900 H         1 UNK         0.3024 
    100 H100       28.8931   -1.0670   -3.0778 H         1 UNK         0.1171 
    101 H101       30.1719   -1.3340   -1.0024 H         1 UNK         0.0786 
    102 H102       29.8147    0.3716   -1.2178 H         1 UNK         0.0786 
    103 H103       28.8971   -0.5712   -0.0530 H         1 UNK         0.0786 
    104 H104       28.3417   -2.8663   -1.2659 H         1 UNK         0.2977 
    105 H105       27.3957    0.8479   -5.2556 H         1 UNK         0.3127 
    106 H106       29.5918    1.8084   -6.6826 H         1 UNK         0.0770 
    107 H107       27.3644    3.3219   -5.2022 H         1 UNK         0.0814 
    108 H108       28.8780    4.0547   -5.7179 H         1 UNK         0.0814 
    109 H109       28.8955    2.7770   -4.5220 H         1 UNK         0.0814 
    110 H110       26.1996    1.9073   -7.6437 H         1 UNK         0.2983 
    111 H111       26.5520    3.8766   -9.7640 H         1 UNK         0.0947 
    112 H112       24.2399    3.2021  -10.3680 H         1 UNK         0.0806 
    113 H113       24.3462    3.5132   -8.6427 H         1 UNK         0.0806 
    114 H114       24.3050    1.8549   -9.2411 H         1 UNK         0.0806 
    115 H115       27.3506    0.5151   -9.4303 H         1 UNK         0.3000 
    116 H116       27.2223   -0.0208  -12.3472 H         1 UNK         0.0850 
    117 H117       27.6836   -2.3510  -11.7162 H         1 UNK         0.0810 
    118 H118       26.2804   -1.7615  -10.8408 H         1 UNK         0.0810 
    119 H119       27.8305   -1.9233  -10.0218 H         1 UNK         0.0810 
    120 H120       29.6127   -0.3193   -9.5854 H         1 UNK         0.3040 
    121 H121       31.7835    0.7371  -11.1462 H         1 UNK         0.0766 
    122 H122       31.6562   -2.3187  -10.7511 H         1 UNK         0.0812 
    123 H123       33.0808   -1.4512  -11.3027 H         1 UNK         0.0812 
    124 H124       31.6483   -1.4880  -12.3041 H         1 UNK         0.0812 
    125 H125       33.8035    0.5758  -10.0486 H         1 UNK         0.3205 
    126 H126       35.3080    0.6207   -8.4877 H         1 UNK         0.0754 
    127 H127       35.0036   -1.8049   -8.4770 H         1 UNK         0.0769 
    128 H128       33.7274   -1.6986   -7.2711 H         1 UNK         0.0769 
    129 H129       35.3773   -1.2695   -6.8474 H         1 UNK         0.0769 
    130 H130       32.2151    0.3963   -6.7150 H         1 UNK         0.2981 
    131 H131       33.3473    1.8571   -4.4176 H         1 UNK         0.0541 
    132 H132       32.0595    3.0105   -7.3246 H         1 UNK         0.3459 
    133 H133       31.5032    4.5387   -6.6937 H         1 UNK         0.3459 
    134 H134       30.8858    0.1591   -4.8547 H         1 UNK         0.0612 
    135 H135       30.7142    1.4483   -3.7132 H         1 UNK         0.0612 
    136 H136       33.5538   -1.1978   -4.6308 H         1 UNK         0.0624 
    137 H137       33.7520   -1.9918   -3.0963 H         1 UNK         0.0624 
@<TRIPOS>BOND
     1    1    2 1    
     2    1   72 1    
     3    1   73 1    
     4    1   74 1    
     5    2    3 2    
     6    2    4 am   BACKBONE|DICT|INTERRES
     7    4    5 1    
     8    4   75 1    
     9    5    6 1    
    10    5   35 1    
    11    5   76 1    
    12    6    7 1    
    13    6   77 1    
    14    6   78 1    
    15    7    8 1    
    16    8    9 1    
    17    8   79 1    
    18    8   80 1    
    19    9   10 ar   
    20    9   14 ar   
    21   10   11 ar   
    22   10   81 1    
    23   11   12 ar   
    24   11   71 1    
    25   12   13 ar   
    26   12   82 1    
    27   13   14 ar   
    28   13   15 1    
    29   14   83 1    
    30   15   16 1    
    31   15   84 1    
    32   15   85 1    
    33   16   17 1    
    34   17   18 1    
    35   17   86 1    
    36   17   87 1    
    37   18   19 1    
    38   18   37 1    
    39   18   88 1    
    40   19   20 am   BACKBONE|DICT|INTERRES
    41   19   89 1    
    42   20   21 2    
    43   20   22 1    
    44   22   23 1    
    45   22   24 1    
    46   22   90 1    
    47   23   91 1    
    48   23   92 1    
    49   23   93 1    
    50   24   25 am   BACKBONE|DICT|INTERRES
    51   24   94 1    
    52   25   26 2    
    53   25   27 1    
    54   27   28 1    
    55   27   29 1    
    56   27   95 1    
    57   28   96 1    
    58   28   97 1    
    59   28   98 1    
    60   29   30 am   BACKBONE|DICT|INTERRES
    61   29   99 1    
    62   30   31 2    
    63   30   32 1    
    64   32   33 1    
    65   32   34 1    
    66   32  100 1    
    67   33  101 1    
    68   33  102 1    
    69   33  103 1    
    70   34   35 am   BACKBONE|DICT|INTERRES
    71   34  104 1    
    72   35   36 2    
    73   37   38 2    
    74   37   39 am   BACKBONE|DICT|INTERRES
    75   39   40 1    
    76   39  105 1    
    77   40   41 1    
    78   40   42 1    
    79   40  106 1    
    80   41  107 1    
    81   41  108 1    
    82   41  109 1    
    83   42   43 2    
    84   42   44 am   BACKBONE|DICT|INTERRES
    85   44   45 1    
    86   44  110 1    
    87   45   46 1    
    88   45   47 1    
    89   45  111 1    
    90   46  112 1    
    91   46  113 1    
    92   46  114 1    
    93   47   48 2    
    94   47   49 am   BACKBONE|DICT|INTERRES
    95   49   50 1    
    96   49  115 1    
    97   50   51 1    
    98   50   52 1    
    99   50  116 1    
   100   51  117 1    
   101   51  118 1    
   102   51  119 1    
   103   52   53 2    
   104   52   54 am   BACKBONE|DICT|INTERRES
   105   54   55 1    
   106   54  120 1    
   107   55   56 1    
   108   55   57 1    
   109   55  121 1    
   110   56  122 1    
   111   56  123 1    
   112   56  124 1    
   113   57   58 2    
   114   57   59 am   BACKBONE|DICT|INTERRES
   115   59   60 1    
   116   59  125 1    
   117   60   61 1    
   118   60   62 1    
   119   60  126 1    
   120   61  127 1    
   121   61  128 1    
   122   61  129 1    
   123   62   63 2    
   124   62   64 am   BACKBONE|DICT|INTERRES
   125   64   65 1    
   126   64  130 1    
   127   65   66 1    
   128   65   69 1    
   129   65  131 1    
   130   66   67 am   BACKBONE|DICT|INTERRES
   131   66   68 2    
   132   67  132 1    
   133   67  133 1    
   134   69   70 1    
   135   69  134 1    
   136   69  135 1    
   137   70   71 1    
   138   71  136 1    
   139   71  137 1    
@<TRIPOS>SUBSTRUCTURE
     1 UNK         1 GROUP             0       ****    0 ROOT    
