@<TRIPOS>MOLECULE
3R137
137   139    1
SMALL
USER_CHARGES


@<TRIPOS>ATOM
      1 CA         28.3858   -3.4941    3.3829 C.3       0 UNK        -0.2020 
      2 C          28.8000   -2.8953    2.0469 C.2       0 UNK         0.4855 
      3 O          29.5295   -1.9033    2.0204 O.2       0 UNK        -0.5197 
      4 N          28.3498   -3.4957    0.9388 N.am      1 UNK        -0.4892 
      5 CA         28.6072   -3.0287   -0.4281 C.3       1 UNK         0.0835 
      6 C6         28.3124   -4.1245   -1.4829 C.3       12 UNK        -0.0855 
      7 S7         29.1995   -5.6954   -1.1910 S.3       12 UNK        -0.2931 
      8 C8         30.8872   -5.3260   -1.7933 C.3       12 UNK         0.0378 
      9 C9         31.0081   -4.9408   -3.2696 C.ar      12 UNK        -0.0802 
     10 C10        32.1406   -4.2303   -3.6830 C.ar      12 UNK        -0.0944 
     11 C11        32.2998   -3.8442   -5.0175 C.ar      12 UNK        -0.0787 
     12 C12        31.3109   -4.1750   -5.9474 C.ar      12 UNK        -0.0862 
     13 C13        30.1609   -4.8579   -5.5474 C.ar      12 UNK        -0.0733 
     14 C14        30.0315   -5.2706   -4.2190 C.ar      12 UNK        -0.0832 
     15 C15        29.0296   -5.0925   -6.5377 C.3       12 UNK         0.0240 
     16 S16        27.5568   -4.1026   -6.1120 S.3       12 UNK        -0.2522 
     17 C17        28.2199   -2.3985   -6.0713 C.3       12 UNK        -0.0967 
     18 CA         27.4261   -1.4309   -6.9762 C.3       5 UNK         0.0660 
     19 N          26.0014   -1.3726   -6.6392 N.am      5 UNK        -0.4015 
     20 C          25.0559   -0.8917   -7.4589 C.2       4 UNK         0.4946 
     21 O          25.3002   -0.4322   -8.5748 O.2       4 UNK        -0.5353 
     22 CA         23.6092   -0.8591   -6.9349 C.3       4 UNK         0.0277 
     23 CB         22.8873   -2.1719   -7.2759 C.3       4 UNK        -0.1981 
     24 N          23.5143   -0.6039   -5.4941 N.am      4 UNK        -0.4209 
     25 C          23.9701    0.5009   -4.8874 C.2       3 UNK         0.4942 
     26 O          24.4824    1.4422   -5.4935 O.2       3 UNK        -0.5208 
     27 CA         23.9081    0.5579   -3.3489 C.3       3 UNK         0.0250 
     28 CB         23.1518   -0.6224   -2.6960 C.3       3 UNK        -0.1990 
     29 N          25.2539    0.6875   -2.7736 N.am      3 UNK        -0.4232 
     30 C          26.2890   -0.1462   -2.9623 C.2       2 UNK         0.4993 
     31 O          26.2279   -1.1606   -3.6609 O.2       2 UNK        -0.5286 
     32 CA         27.6332    0.2136   -2.2957 C.3       2 UNK         0.0209 
     33 CB         27.5548    1.3663   -1.2680 C.3       2 UNK        -0.1931 
     34 N          28.2824   -0.9674   -1.7115 N.am      2 UNK        -0.4546 
     35 C          27.7862   -1.7617   -0.7504 C.2       1 UNK         0.5154 
     36 O          26.7187   -1.5558   -0.1645 O.2       1 UNK        -0.5181 
     37 C          28.0830   -0.0362   -6.9964 C.2       5 UNK         0.5014 
     38 O          29.1005    0.1234   -7.6710 O.2       5 UNK        -0.5248 
     39 N          27.4900    0.9608   -6.3207 N.am      6 UNK        -0.4434 
     40 CA         27.9266    2.3584   -6.3975 C.3       6 UNK         0.0363 
     41 CB         27.3699    3.1552   -5.2072 C.3       6 UNK        -0.1936 
     42 C          27.5461    3.0242   -7.7318 C.2       6 UNK         0.5081 
     43 O          28.1698    4.0190   -8.0988 O.2       6 UNK        -0.5248 
     44 N          26.5574    2.4647   -8.4422 N.am      7 UNK        -0.4718 
     45 CA         26.1894    2.8661   -9.7979 C.3       7 UNK         0.0273 
     46 CB         24.6631    2.7757   -9.9663 C.3       7 UNK        -0.1935 
     47 C          26.9101    1.9952  -10.8375 C.2       7 UNK         0.5018 
     48 O          27.4947    2.5373  -11.7755 O.2       7 UNK        -0.5186 
     49 N          26.8446    0.6668  -10.6635 N.am      8 UNK        -0.4240 
     50 CA         27.3375   -0.3173  -11.6293 C.3       8 UNK         0.0235 
     51 CB         26.7131   -1.6902  -11.3280 C.3       8 UNK        -0.2000 
     52 C          28.8691   -0.4240  -11.6933 C.2       8 UNK         0.4941 
     53 O          29.4167   -0.4718  -12.7957 O.2       8 UNK        -0.5273 
     54 N          29.5267   -0.4889  -10.5279 N.am      9 UNK        -0.4262 
     55 CA         30.9710   -0.7208  -10.4043 C.3       9 UNK         0.0264 
     56 CB         31.1924   -1.9338   -9.4829 C.3       9 UNK        -0.1955 
     57 C          31.7338    0.5064   -9.8757 C.2       9 UNK         0.5031 
     58 O          32.9650    0.4973   -9.9089 O.2       9 UNK        -0.5390 
     59 N          31.0037    1.5224   -9.3906 N.am      10 UNK        -0.4204 
     60 CA         31.4873    2.7293   -8.7074 C.3       10 UNK         0.0237 
     61 CB         32.3587    3.5965   -9.6418 C.3       10 UNK        -0.1985 
     62 C          32.1612    2.4321   -7.3511 C.2       10 UNK         0.4970 
     63 O          33.0233    3.1998   -6.9194 O.2       10 UNK        -0.4914 
     64 N          31.7588    1.3329   -6.7006 N.am      11 UNK        -0.4285 
     65 CA         32.2755    0.9010   -5.3960 C.3       11 UNK         0.1007 
     66 C          31.5931    1.6795   -4.2438 C.2       11 UNK         0.5703 
     67 N          32.3647    2.2736   -3.3442 N.am      11 UNK        -0.7361 
     68 O          30.3703    1.7111   -4.1364 O.2       11 UNK        -0.4986 
     69 C69        32.1161   -0.6269   -5.2049 C.3       12 UNK        -0.0947 
     70 S70        33.1278   -1.5614   -6.3996 S.3       12 UNK        -0.2240 
     71 C71        33.5357   -3.0621   -5.4480 C.3       12 UNK         0.0194 
     72 H72        27.7574   -4.3759    3.2577 H         1 UNK         0.0906 
     73 H73        29.2674   -3.7849    3.9535 H         1 UNK         0.0906 
     74 H74        27.8287   -2.7610    3.9656 H         1 UNK         0.0906 
     75 H75        27.7466   -4.3022    1.0151 H         1 UNK         0.3140 
     76 H76        29.6648   -2.7637   -0.4937 H         1 UNK         0.1085 
     77 H77        27.2447   -4.3539   -1.4977 H         1 UNK         0.0836 
     78 H78        28.5447   -3.7614   -2.4853 H         1 UNK         0.0836 
     79 H79        31.3023   -4.5315   -1.1714 H         1 UNK         0.0731 
     80 H80        31.5094   -6.2048   -1.6197 H         1 UNK         0.0731 
     81 H81        32.9025   -3.9734   -2.9593 H         1 UNK         0.1312 
     82 H82        31.4205   -3.8624   -6.9768 H         1 UNK         0.1406 
     83 H83        29.1420   -5.8107   -3.9264 H         1 UNK         0.1631 
     84 H84        28.7618   -6.1500   -6.5408 H         1 UNK         0.0717 
     85 H85        29.3411   -4.8482   -7.5546 H         1 UNK         0.0717 
     86 H86        29.2633   -2.4097   -6.3876 H         1 UNK         0.0934 
     87 H87        28.2277   -2.0569   -5.0354 H         1 UNK         0.0934 
     88 H88        27.5004   -1.8159   -7.9950 H         1 UNK         0.0739 
     89 H89        25.7545   -1.6721   -5.7022 H         1 UNK         0.3093 
     90 H90        23.0970   -0.0428   -7.4488 H         1 UNK         0.0818 
     91 H91        21.8348   -2.1317   -6.9947 H         1 UNK         0.0819 
     92 H92        22.9266   -2.3703   -8.3481 H         1 UNK         0.0819 
     93 H93        23.3394   -3.0262   -6.7701 H         1 UNK         0.0819 
     94 H94        23.1284   -1.3407   -4.9215 H         1 UNK         0.3041 
     95 H95        23.3709    1.4746   -3.1010 H         1 UNK         0.0784 
     96 H96        22.1263   -0.6884   -3.0621 H         1 UNK         0.0793 
     97 H97        23.6379   -1.5813   -2.8803 H         1 UNK         0.0793 
     98 H98        23.0930   -0.4930   -1.6151 H         1 UNK         0.0793 
     99 H99        25.4071    1.5084   -2.2053 H         1 UNK         0.3024 
    100 H100       28.2801    0.5420   -3.1097 H         1 UNK         0.1171 
    101 H101       28.5339    1.5638   -0.8314 H         1 UNK         0.0786 
    102 H102       26.8694    1.1425   -0.4496 H         1 UNK         0.0786 
    103 H103       27.2280    2.2962   -1.7345 H         1 UNK         0.0786 
    104 H104       29.1488   -1.2399   -2.1536 H         1 UNK         0.2977 
    105 H105       26.6207    0.7831   -5.8330 H         1 UNK         0.3127 
    106 H106       29.0154    2.3802   -6.3289 H         1 UNK         0.0770 
    107 H107       26.2843    3.2384   -5.2401 H         1 UNK         0.0814 
    108 H108       27.7693    4.1702   -5.2047 H         1 UNK         0.0814 
    109 H109       27.6495    2.6998   -4.2582 H         1 UNK         0.0814 
    110 H110       26.0929    1.6466   -8.0703 H         1 UNK         0.2983 
    111 H111       26.4809    3.9045   -9.9724 H         1 UNK         0.0947 
    112 H112       24.3642    3.0761  -10.9714 H         1 UNK         0.0806 
    113 H113       24.1503    3.4350   -9.2658 H         1 UNK         0.0806 
    114 H114       24.2898    1.7640   -9.8043 H         1 UNK         0.0806 
    115 H115       26.3047    0.3011   -9.8799 H         1 UNK         0.3000 
    116 H116       26.9925   -0.0091  -12.6190 H         1 UNK         0.0850 
    117 H117       27.0331   -2.4341  -12.0589 H         1 UNK         0.0810 
    118 H118       25.6244   -1.6466  -11.3659 H         1 UNK         0.0810 
    119 H119       26.9961   -2.0592  -10.3421 H         1 UNK         0.0810 
    120 H120       29.0120   -0.4209   -9.6576 H         1 UNK         0.3040 
    121 H121       31.4042   -0.9611  -11.3774 H         1 UNK         0.0766 
    122 H122       32.2543   -2.1652   -9.3899 H         1 UNK         0.0812 
    123 H123       30.8106   -1.7551   -8.4776 H         1 UNK         0.0812 
    124 H124       30.7012   -2.8246   -9.8742 H         1 UNK         0.0812 
    125 H125       30.0024    1.3881   -9.3684 H         1 UNK         0.3205 
    126 H126       30.6008    3.3137   -8.4686 H         1 UNK         0.0754 
    127 H127       32.5721    4.5654   -9.1888 H         1 UNK         0.0769 
    128 H128       31.8544    3.7881  -10.5889 H         1 UNK         0.0769 
    129 H129       33.3168    3.1242   -9.8600 H         1 UNK         0.0769 
    130 H130       31.0051    0.7788   -7.0899 H         1 UNK         0.2981 
    131 H131       33.3448    1.1217   -5.3656 H         1 UNK         0.0541 
    132 H132       33.3697    2.2497   -3.4200 H         1 UNK         0.3459 
    133 H133       31.9308    2.7698   -2.5821 H         1 UNK         0.3459 
    134 H134       31.0729   -0.9291   -5.3143 H         1 UNK         0.0612 
    135 H135       32.4190   -0.9160   -4.1967 H         1 UNK         0.0612 
    136 H136       34.1637   -3.7075   -6.0632 H         1 UNK         0.0624 
    137 H137       34.1373   -2.7752   -4.5841 H         1 UNK         0.0624 
@<TRIPOS>BOND
     1    1    2 1    
     2    1   72 1    
     3    1   73 1    
     4    1   74 1    
     5    2    3 2    
     6    2    4 am   BACKBONE|DICT|INTERRES
     7    4    5 1    
     8    4   75 1    
     9    5    6 1    
    10    5   35 1    
    11    5   76 1    
    12    6    7 1    
    13    6   77 1    
    14    6   78 1    
    15    7    8 1    
    16    8    9 1    
    17    8   79 1    
    18    8   80 1    
    19    9   10 ar   
    20    9   14 ar   
    21   10   11 ar   
    22   10   81 1    
    23   11   12 ar   
    24   11   71 1    
    25   12   13 ar   
    26   12   82 1    
    27   13   14 ar   
    28   13   15 1    
    29   14   83 1    
    30   15   16 1    
    31   15   84 1    
    32   15   85 1    
    33   16   17 1    
    34   17   18 1    
    35   17   86 1    
    36   17   87 1    
    37   18   19 1    
    38   18   37 1    
    39   18   88 1    
    40   19   20 am   BACKBONE|DICT|INTERRES
    41   19   89 1    
    42   20   21 2    
    43   20   22 1    
    44   22   23 1    
    45   22   24 1    
    46   22   90 1    
    47   23   91 1    
    48   23   92 1    
    49   23   93 1    
    50   24   25 am   BACKBONE|DICT|INTERRES
    51   24   94 1    
    52   25   26 2    
    53   25   27 1    
    54   27   28 1    
    55   27   29 1    
    56   27   95 1    
    57   28   96 1    
    58   28   97 1    
    59   28   98 1    
    60   29   30 am   BACKBONE|DICT|INTERRES
    61   29   99 1    
    62   30   31 2    
    63   30   32 1    
    64   32   33 1    
    65   32   34 1    
    66   32  100 1    
    67   33  101 1    
    68   33  102 1    
    69   33  103 1    
    70   34   35 am   BACKBONE|DICT|INTERRES
    71   34  104 1    
    72   35   36 2    
    73   37   38 2    
    74   37   39 am   BACKBONE|DICT|INTERRES
    75   39   40 1    
    76   39  105 1    
    77   40   41 1    
    78   40   42 1    
    79   40  106 1    
    80   41  107 1    
    81   41  108 1    
    82   41  109 1    
    83   42   43 2    
    84   42   44 am   BACKBONE|DICT|INTERRES
    85   44   45 1    
    86   44  110 1    
    87   45   46 1    
    88   45   47 1    
    89   45  111 1    
    90   46  112 1    
    91   46  113 1    
    92   46  114 1    
    93   47   48 2    
    94   47   49 am   BACKBONE|DICT|INTERRES
    95   49   50 1    
    96   49  115 1    
    97   50   51 1    
    98   50   52 1    
    99   50  116 1    
   100   51  117 1    
   101   51  118 1    
   102   51  119 1    
   103   52   53 2    
   104   52   54 am   BACKBONE|DICT|INTERRES
   105   54   55 1    
   106   54  120 1    
   107   55   56 1    
   108   55   57 1    
   109   55  121 1    
   110   56  122 1    
   111   56  123 1    
   112   56  124 1    
   113   57   58 2    
   114   57   59 am   BACKBONE|DICT|INTERRES
   115   59   60 1    
   116   59  125 1    
   117   60   61 1    
   118   60   62 1    
   119   60  126 1    
   120   61  127 1    
   121   61  128 1    
   122   61  129 1    
   123   62   63 2    
   124   62   64 am   BACKBONE|DICT|INTERRES
   125   64   65 1    
   126   64  130 1    
   127   65   66 1    
   128   65   69 1    
   129   65  131 1    
   130   66   67 am   BACKBONE|DICT|INTERRES
   131   66   68 2    
   132   67  132 1    
   133   67  133 1    
   134   69   70 1    
   135   69  134 1    
   136   69  135 1    
   137   70   71 1    
   138   71  136 1    
   139   71  137 1    
@<TRIPOS>SUBSTRUCTURE
     1 UNK         1 GROUP             0       ****    0 ROOT    
