@<TRIPOS>MOLECULE
3R137
137   139    1
SMALL
USER_CHARGES


@<TRIPOS>ATOM
      1 CA         25.0310   -6.3228    1.1763 C.3       0 UNK        -0.2020 
      2 C          25.8238   -5.0247    1.1565 C.2       0 UNK         0.4855 
      3 O          25.7559   -4.2517    2.1125 O.2       0 UNK        -0.5197 
      4 N          26.5776   -4.7819    0.0761 N.am      1 UNK        -0.4892 
      5 CA         27.4103   -3.5861   -0.1214 C.3       1 UNK         0.0835 
      6 C6         28.3697   -3.7485   -1.3244 C.3       12 UNK        -0.0855 
      7 S7         29.5088   -5.1589   -1.1197 S.3       12 UNK        -0.2931 
      8 C8         31.1021   -4.4055   -1.6040 C.3       12 UNK         0.0378 
      9 C9         31.2154   -3.9651   -3.0672 C.ar      12 UNK        -0.0802 
     10 C10        32.2897   -3.1466   -3.4302 C.ar      12 UNK        -0.0944 
     11 C11        32.4774   -2.7477   -4.7567 C.ar      12 UNK        -0.0787 
     12 C12        31.5533   -3.1549   -5.7260 C.ar      12 UNK        -0.0862 
     13 C13        30.4639   -3.9632   -5.3869 C.ar      12 UNK        -0.0733 
     14 C14        30.3163   -4.3806   -4.0595 C.ar      12 UNK        -0.0832 
     15 C15        29.5093   -4.4219   -6.4902 C.3       12 UNK         0.0240 
     16 S16        27.7844   -4.7450   -5.9699 S.3       12 UNK        -0.2522 
     17 C17        27.2182   -3.1320   -5.3327 C.3       12 UNK        -0.0967 
     18 CA         26.7609   -2.1600   -6.4554 C.3       5 UNK         0.0660 
     19 N          25.5559   -1.4069   -6.0914 N.am      5 UNK        -0.4015 
     20 C          24.8154   -0.7033   -6.9640 C.2       4 UNK         0.4946 
     21 O          25.0408   -0.6643   -8.1725 O.2       4 UNK        -0.5353 
     22 CA         23.6518    0.1350   -6.4030 C.3       4 UNK         0.0277 
     23 CB         22.3648   -0.7030   -6.3445 C.3       4 UNK        -0.1981 
     24 N          23.9258    0.7014   -5.0814 N.am      4 UNK        -0.4209 
     25 C          24.9302    1.5441   -4.8010 C.2       3 UNK         0.4942 
     26 O          25.6845    2.0121   -5.6519 O.2       3 UNK        -0.5208 
     27 CA         25.1774    1.8769   -3.3188 C.3       3 UNK         0.0250 
     28 CB         24.5259    3.2208   -2.9571 C.3       3 UNK        -0.1990 
     29 N          24.7245    0.8446   -2.3766 N.am      3 UNK        -0.4232 
     30 C          25.1255   -0.4351   -2.3719 C.2       2 UNK         0.4993 
     31 O          25.8858   -0.9229   -3.2147 O.2       2 UNK        -0.5286 
     32 CA         24.5089   -1.3326   -1.2865 C.3       2 UNK         0.0209 
     33 CB         23.1688   -1.9090   -1.7730 C.3       2 UNK        -0.1931 
     34 N          25.3959   -2.4390   -0.9281 N.am      2 UNK        -0.4546 
     35 C          26.5717   -2.3044   -0.2985 C.2       1 UNK         0.5154 
     36 O          27.0000   -1.2324    0.1331 O.2       1 UNK        -0.5181 
     37 C          27.8934   -1.1955   -6.8472 C.2       5 UNK         0.5014 
     38 O          28.5164   -1.3680   -7.8947 O.2       5 UNK        -0.5248 
     39 N          28.1078   -0.1709   -6.0104 N.am      6 UNK        -0.4434 
     40 CA         29.1195    0.8638   -6.2136 C.3       6 UNK         0.0363 
     41 CB         29.2019    1.7525   -4.9630 C.3       6 UNK        -0.1936 
     42 C          28.8869    1.7093   -7.4745 C.2       6 UNK         0.5081 
     43 O          29.8622    2.0736   -8.1314 O.2       6 UNK        -0.5248 
     44 N          27.6128    1.9823   -7.7873 N.am      7 UNK        -0.4718 
     45 CA         27.1698    2.6693   -9.0000 C.3       7 UNK         0.0273 
     46 CB         25.7240    3.1545   -8.8081 C.3       7 UNK        -0.1935 
     47 C          27.2807    1.7986  -10.2632 C.2       7 UNK         0.5018 
     48 O          27.5854    2.3366  -11.3280 O.2       7 UNK        -0.5186 
     49 N          27.0248    0.4863  -10.1387 N.am      8 UNK        -0.4240 
     50 CA         27.1888   -0.4913  -11.2211 C.3       8 UNK         0.0235 
     51 CB         26.4898   -1.8097  -10.8517 C.3       8 UNK        -0.2000 
     52 C          28.6667   -0.7388  -11.5662 C.2       8 UNK         0.4941 
     53 O          28.9931   -0.9014  -12.7433 O.2       8 UNK        -0.5273 
     54 N          29.5228   -0.7511  -10.5368 N.am      9 UNK        -0.4262 
     55 CA         30.9797   -0.7548  -10.6389 C.3       9 UNK         0.0264 
     56 CB         31.5483   -1.5226   -9.4274 C.3       9 UNK        -0.1955 
     57 C          31.4934    0.6958  -10.7693 C.2       9 UNK         0.5031 
     58 O          31.0199    1.4349  -11.6347 O.2       9 UNK        -0.5390 
     59 N          32.4534    1.0855   -9.9240 N.am      10 UNK        -0.4204 
     60 CA         32.9828    2.4453   -9.8125 C.3       10 UNK         0.0237 
     61 CB         33.9978    2.7258  -10.9417 C.3       10 UNK        -0.1985 
     62 C          33.5733    2.6338   -8.4075 C.2       10 UNK         0.4970 
     63 O          34.7060    3.1012   -8.2747 O.2       10 UNK        -0.4914 
     64 N          32.8154    2.2114   -7.3877 N.am      11 UNK        -0.4285 
     65 CA         33.2778    2.1264   -5.9884 C.3       11 UNK         0.1007 
     66 C          32.8278    3.3248   -5.1059 C.2       11 UNK         0.5703 
     67 N          32.1086    4.3076   -5.6358 N.am      11 UNK        -0.7361 
     68 O          33.1495    3.3737   -3.9212 O.2       11 UNK        -0.4986 
     69 C69        32.9311    0.7574   -5.3366 C.3       12 UNK        -0.0947 
     70 S70        33.4609   -0.6524   -6.3679 S.3       12 UNK        -0.2240 
     71 C71        33.7346   -1.9666   -5.1358 C.3       12 UNK         0.0194 
     72 H72        23.9656   -6.1105    1.2620 H         1 UNK         0.0906 
     73 H73        25.1878   -6.9115    0.2725 H         1 UNK         0.0906 
     74 H74        25.3271   -6.9300    2.0314 H         1 UNK         0.0906 
     75 H75        26.6264   -5.4709   -0.6616 H         1 UNK         0.3140 
     76 H76        28.0123   -3.4483    0.7799 H         1 UNK         0.1085 
     77 H77        28.9550   -2.8371   -1.4661 H         1 UNK         0.0836 
     78 H78        27.8083   -3.8912   -2.2499 H         1 UNK         0.0836 
     79 H79        31.2937   -3.5532   -0.9501 H         1 UNK         0.0731 
     80 H80        31.8931   -5.1293   -1.4037 H         1 UNK         0.0731 
     81 H81        33.0066   -2.8471   -2.6774 H         1 UNK         0.1312 
     82 H82        31.6993   -2.8669   -6.7575 H         1 UNK         0.1406 
     83 H83        29.5008   -5.0422   -3.8084 H         1 UNK         0.1631 
     84 H84        29.9087   -5.3431   -6.9160 H         1 UNK         0.0717 
     85 H85        29.4979   -3.6987   -7.3053 H         1 UNK         0.0717 
     86 H86        26.3790   -3.3559   -4.6720 H         1 UNK         0.0934 
     87 H87        27.9764   -2.6969   -4.6779 H         1 UNK         0.0934 
     88 H88        26.5063   -2.7424   -7.3440 H         1 UNK         0.0739 
     89 H89        25.3619   -1.3269   -5.0981 H         1 UNK         0.3093 
     90 H90        23.4879    0.9678   -7.0900 H         1 UNK         0.0818 
     91 H91        21.5107   -0.0988   -6.0380 H         1 UNK         0.0819 
     92 H92        22.1280   -1.1209   -7.3242 H         1 UNK         0.0819 
     93 H93        22.4551   -1.5373   -5.6476 H         1 UNK         0.0819 
     94 H94        23.3499    0.3789   -4.3181 H         1 UNK         0.3041 
     95 H95        26.2571    1.9763   -3.1910 H         1 UNK         0.0784 
     96 H96        24.8649    4.0118   -3.6280 H         1 UNK         0.0793 
     97 H97        23.4384    3.1759   -3.0300 H         1 UNK         0.0793 
     98 H98        24.7836    3.5282   -1.9434 H         1 UNK         0.0793 
     99 H99        24.0797    1.1503   -1.6614 H         1 UNK         0.3024 
    100 H100       24.3371   -0.7330   -0.3894 H         1 UNK         0.1171 
    101 H101       22.4601   -1.1143   -2.0098 H         1 UNK         0.0786 
    102 H102       22.7052   -2.5336   -1.0090 H         1 UNK         0.0786 
    103 H103       23.2918   -2.5149   -2.6720 H         1 UNK         0.0786 
    104 H104       25.1354   -3.3580   -1.2536 H         1 UNK         0.2977 
    105 H105       27.5292   -0.0904   -5.1857 H         1 UNK         0.3127 
    106 H106       30.0708    0.3490   -6.3503 H         1 UNK         0.0770 
    107 H107       28.2539    2.2501   -4.7580 H         1 UNK         0.0814 
    108 H108       29.9511    2.5334   -5.0872 H         1 UNK         0.0814 
    109 H109       29.4777    1.1748   -4.0807 H         1 UNK         0.0814 
    110 H110       26.8898    1.7279   -7.1189 H         1 UNK         0.2983 
    111 H111       27.8087    3.5434   -9.1451 H         1 UNK         0.0947 
    112 H112       25.3738    3.6983   -9.6865 H         1 UNK         0.0806 
    113 H113       25.6420    3.8278   -7.9546 H         1 UNK         0.0806 
    114 H114       25.0392    2.3218   -8.6432 H         1 UNK         0.0806 
    115 H115       26.7078    0.1279   -9.2447 H         1 UNK         0.3000 
    116 H116       26.7042   -0.0907  -12.1141 H         1 UNK         0.0850 
    117 H117       26.6051   -2.5489  -11.6455 H         1 UNK         0.0810 
    118 H118       25.4205   -1.6613  -10.7009 H         1 UNK         0.0810 
    119 H119       26.8993   -2.2434   -9.9389 H         1 UNK         0.0810 
    120 H120       29.1395   -0.6800   -9.5977 H         1 UNK         0.3040 
    121 H121       31.2791   -1.2853  -11.5450 H         1 UNK         0.0766 
    122 H122       32.6338   -1.6152   -9.4799 H         1 UNK         0.0812 
    123 H123       31.1480   -2.5360   -9.3884 H         1 UNK         0.0812 
    124 H124       31.2903   -1.0377   -8.4848 H         1 UNK         0.0812 
    125 H125       32.7946    0.4254   -9.2379 H         1 UNK         0.3205 
    126 H126       32.1562    3.1537   -9.9014 H         1 UNK         0.0754 
    127 H127       34.3919    3.7404  -10.8720 H         1 UNK         0.0769 
    128 H128       33.5385    2.6288  -11.9255 H         1 UNK         0.0769 
    129 H129       34.8446    2.0399  -10.8990 H         1 UNK         0.0769 
    130 H130       31.8587    1.9291   -7.5730 H         1 UNK         0.2981 
    131 H131       34.3676    2.1858   -5.9832 H         1 UNK         0.0541 
    132 H132       31.8511    4.2854   -6.6093 H         1 UNK         0.3459 
    133 H133       31.8325    5.0845   -5.0565 H         1 UNK         0.3459 
    134 H134       31.8658    0.6685   -5.1373 H         1 UNK         0.0612 
    135 H135       33.4218    0.6783   -4.3651 H         1 UNK         0.0612 
    136 H136       34.2120   -1.5390   -4.2530 H         1 UNK         0.0624 
    137 H137       34.4516   -2.6740   -5.5540 H         1 UNK         0.0624 
@<TRIPOS>BOND
     1    1    2 1    
     2    1   72 1    
     3    1   73 1    
     4    1   74 1    
     5    2    3 2    
     6    2    4 am   BACKBONE|DICT|INTERRES
     7    4    5 1    
     8    4   75 1    
     9    5    6 1    
    10    5   35 1    
    11    5   76 1    
    12    6    7 1    
    13    6   77 1    
    14    6   78 1    
    15    7    8 1    
    16    8    9 1    
    17    8   79 1    
    18    8   80 1    
    19    9   10 ar   
    20    9   14 ar   
    21   10   11 ar   
    22   10   81 1    
    23   11   12 ar   
    24   11   71 1    
    25   12   13 ar   
    26   12   82 1    
    27   13   14 ar   
    28   13   15 1    
    29   14   83 1    
    30   15   16 1    
    31   15   84 1    
    32   15   85 1    
    33   16   17 1    
    34   17   18 1    
    35   17   86 1    
    36   17   87 1    
    37   18   19 1    
    38   18   37 1    
    39   18   88 1    
    40   19   20 am   BACKBONE|DICT|INTERRES
    41   19   89 1    
    42   20   21 2    
    43   20   22 1    
    44   22   23 1    
    45   22   24 1    
    46   22   90 1    
    47   23   91 1    
    48   23   92 1    
    49   23   93 1    
    50   24   25 am   BACKBONE|DICT|INTERRES
    51   24   94 1    
    52   25   26 2    
    53   25   27 1    
    54   27   28 1    
    55   27   29 1    
    56   27   95 1    
    57   28   96 1    
    58   28   97 1    
    59   28   98 1    
    60   29   30 am   BACKBONE|DICT|INTERRES
    61   29   99 1    
    62   30   31 2    
    63   30   32 1    
    64   32   33 1    
    65   32   34 1    
    66   32  100 1    
    67   33  101 1    
    68   33  102 1    
    69   33  103 1    
    70   34   35 am   BACKBONE|DICT|INTERRES
    71   34  104 1    
    72   35   36 2    
    73   37   38 2    
    74   37   39 am   BACKBONE|DICT|INTERRES
    75   39   40 1    
    76   39  105 1    
    77   40   41 1    
    78   40   42 1    
    79   40  106 1    
    80   41  107 1    
    81   41  108 1    
    82   41  109 1    
    83   42   43 2    
    84   42   44 am   BACKBONE|DICT|INTERRES
    85   44   45 1    
    86   44  110 1    
    87   45   46 1    
    88   45   47 1    
    89   45  111 1    
    90   46  112 1    
    91   46  113 1    
    92   46  114 1    
    93   47   48 2    
    94   47   49 am   BACKBONE|DICT|INTERRES
    95   49   50 1    
    96   49  115 1    
    97   50   51 1    
    98   50   52 1    
    99   50  116 1    
   100   51  117 1    
   101   51  118 1    
   102   51  119 1    
   103   52   53 2    
   104   52   54 am   BACKBONE|DICT|INTERRES
   105   54   55 1    
   106   54  120 1    
   107   55   56 1    
   108   55   57 1    
   109   55  121 1    
   110   56  122 1    
   111   56  123 1    
   112   56  124 1    
   113   57   58 2    
   114   57   59 am   BACKBONE|DICT|INTERRES
   115   59   60 1    
   116   59  125 1    
   117   60   61 1    
   118   60   62 1    
   119   60  126 1    
   120   61  127 1    
   121   61  128 1    
   122   61  129 1    
   123   62   63 2    
   124   62   64 am   BACKBONE|DICT|INTERRES
   125   64   65 1    
   126   64  130 1    
   127   65   66 1    
   128   65   69 1    
   129   65  131 1    
   130   66   67 am   BACKBONE|DICT|INTERRES
   131   66   68 2    
   132   67  132 1    
   133   67  133 1    
   134   69   70 1    
   135   69  134 1    
   136   69  135 1    
   137   70   71 1    
   138   71  136 1    
   139   71  137 1    
@<TRIPOS>SUBSTRUCTURE
     1 UNK         1 GROUP             0       ****    0 ROOT    
