@<TRIPOS>MOLECULE
3R137
137   139    1
SMALL
USER_CHARGES


@<TRIPOS>ATOM
      1 CA         28.0923    1.1102    2.2211 C.3       0 UNK        -0.2020 
      2 C          27.9129   -0.4055    2.2420 C.2       0 UNK         0.4855 
      3 O          27.5731   -0.9581    3.2860 O.2       0 UNK        -0.5197 
      4 N          28.1288   -1.1241    1.1306 N.am      1 UNK        -0.4892 
      5 CA         28.4887   -0.6244   -0.2050 C.3       1 UNK         0.0835 
      6 C6         29.0898   -1.7515   -1.0803 C.3       12 UNK        -0.0855 
      7 S7         27.9818   -3.1891   -1.3089 S.3       12 UNK        -0.2931 
      8 C8         29.1732   -4.4994   -1.7313 C.3       12 UNK         0.0378 
      9 C9         29.7045   -4.3394   -3.1482 C.ar      12 UNK        -0.0802 
     10 C10        30.8596   -3.5899   -3.3892 C.ar      12 UNK        -0.0944 
     11 C11        31.3431   -3.4278   -4.6906 C.ar      12 UNK        -0.0787 
     12 C12        30.6677   -4.0327   -5.7569 C.ar      12 UNK        -0.0862 
     13 C13        29.5260   -4.8093   -5.5259 C.ar      12 UNK        -0.0733 
     14 C14        29.0476   -4.9530   -4.2191 C.ar      12 UNK        -0.0832 
     15 C15        28.8478   -5.5482   -6.6736 C.3       12 UNK         0.0240 
     16 S16        27.1085   -5.0468   -6.9053 S.3       12 UNK        -0.2522 
     17 C17        27.0888   -4.4054   -8.6208 C.3       12 UNK        -0.0967 
     18 CA         26.6749   -2.9176   -8.7357 C.3       5 UNK         0.0660 
     19 N          25.3793   -2.6489   -8.1075 N.am      5 UNK        -0.4015 
     20 C          24.6829   -1.5120   -8.2431 C.2       4 UNK         0.4946 
     21 O          25.0237   -0.5808   -8.9717 O.2       4 UNK        -0.5353 
     22 CA         23.4156   -1.3718   -7.3827 C.3       4 UNK         0.0277 
     23 CB         22.2061   -1.9987   -8.0943 C.3       4 UNK        -0.1981 
     24 N          23.5565   -1.9496   -6.0405 N.am      4 UNK        -0.4209 
     25 C          24.4464   -1.5333   -5.1289 C.2       3 UNK         0.4942 
     26 O          25.2607   -0.6312   -5.3337 O.2       3 UNK        -0.5208 
     27 CA         24.4682   -2.2977   -3.7942 C.3       3 UNK         0.0250 
     28 CB         25.4045   -3.5129   -3.8971 C.3       3 UNK        -0.1990 
     29 N          24.8992   -1.4599   -2.6719 N.am      3 UNK        -0.4232 
     30 C          24.2349   -0.3899   -2.2101 C.2       2 UNK         0.4993 
     31 O          23.1507   -0.0179   -2.6632 O.2       2 UNK        -0.5286 
     32 CA         24.8474    0.3838   -1.0259 C.3       2 UNK         0.0209 
     33 CB         23.8445    0.4959    0.1369 C.3       2 UNK        -0.1931 
     34 N          26.0824   -0.2153   -0.5119 N.am      2 UNK        -0.4546 
     35 C          27.3207    0.0883   -0.9236 C.2       1 UNK         0.5154 
     36 O          27.5630    0.9045   -1.8119 O.2       1 UNK        -0.5181 
     37 C          27.7761   -1.9679   -8.2260 C.2       5 UNK         0.5014 
     38 O          28.5490   -1.4543   -9.0348 O.2       5 UNK        -0.5248 
     39 N          27.7974   -1.7186   -6.9087 N.am      6 UNK        -0.4434 
     40 CA         28.7114   -0.7860   -6.2527 C.3       6 UNK         0.0363 
     41 CB         28.5942   -0.9197   -4.7277 C.3       6 UNK        -0.1936 
     42 C          28.4548    0.6602   -6.6899 C.2       6 UNK         0.5081 
     43 O          29.4037    1.3652   -7.0260 O.2       6 UNK        -0.5248 
     44 N          27.1758    1.0588   -6.7267 N.am      7 UNK        -0.4718 
     45 CA         26.7264    2.3677   -7.2045 C.3       7 UNK         0.0273 
     46 CB         25.2161    2.5114   -6.9592 C.3       7 UNK        -0.1935 
     47 C          27.0696    2.6219   -8.6833 C.2       7 UNK         0.5018 
     48 O          27.4741    3.7345   -9.0225 O.2       7 UNK        -0.5186 
     49 N          26.9183    1.5913   -9.5274 N.am      8 UNK        -0.4240 
     50 CA         27.2595    1.6300  -10.9493 C.3       8 UNK         0.0235 
     51 CB         26.6239    0.4291  -11.6693 C.3       8 UNK        -0.2000 
     52 C          28.7756    1.6756  -11.2009 C.2       8 UNK         0.4941 
     53 O          29.2310    2.5226  -11.9707 O.2       8 UNK        -0.5273 
     54 N          29.5266    0.7568  -10.5767 N.am      9 UNK        -0.4262 
     55 CA         30.9661    0.5935  -10.8014 C.3       9 UNK         0.0264 
     56 CB         31.3834   -0.8314  -10.3990 C.3       9 UNK        -0.1955 
     57 C          31.8371    1.6200  -10.0605 C.2       9 UNK         0.5031 
     58 O          32.9707    1.8480  -10.4847 O.2       9 UNK        -0.5390 
     59 N          31.3362    2.1589   -8.9380 N.am      10 UNK        -0.4204 
     60 CA         32.0320    3.0084   -7.9577 C.3       10 UNK         0.0237 
     61 CB         32.5370    4.3192   -8.5979 C.3       10 UNK        -0.1985 
     62 C          33.1382    2.2745   -7.1676 C.2       10 UNK         0.4970 
     63 O          33.8618    2.9214   -6.4089 O.2       10 UNK        -0.4914 
     64 N          33.2435    0.9496   -7.3487 N.am      11 UNK        -0.4285 
     65 CA         34.2247    0.0379   -6.7369 C.3       11 UNK         0.1007 
     66 C          35.7130    0.3541   -7.0822 C.2       11 UNK         0.5703 
     67 N          35.9966    1.0449   -8.1809 N.am      11 UNK        -0.7361 
     68 O          36.6269   -0.0577   -6.3710 O.2       11 UNK        -0.4986 
     69 C69        33.9715   -0.1879   -5.2191 C.3       12 UNK        -0.0947 
     70 S70        32.2980   -0.8352   -4.8844 S.3       12 UNK        -0.2240 
     71 C71        32.6133   -2.6254   -4.9322 C.3       12 UNK         0.0194 
     72 H72        27.3314    1.5856    1.6033 H         1 UNK         0.0906 
     73 H73        27.9989    1.5167    3.2281 H         1 UNK         0.0906 
     74 H74        29.0774    1.3882    1.8486 H         1 UNK         0.0906 
     75 H75        28.0099   -2.1271    1.1784 H         1 UNK         0.3140 
     76 H76        29.2719    0.1263   -0.0840 H         1 UNK         0.1085 
     77 H77        29.3811   -1.3662   -2.0577 H         1 UNK         0.0836 
     78 H78        30.0158   -2.0980   -0.6188 H         1 UNK         0.0836 
     79 H79        28.6788   -5.4667   -1.6297 H         1 UNK         0.0731 
     80 H80        29.9934   -4.5036   -1.0118 H         1 UNK         0.0731 
     81 H81        31.3805   -3.1229   -2.5648 H         1 UNK         0.1312 
     82 H82        31.0462   -3.9183   -6.7634 H         1 UNK         0.1406 
     83 H83        28.1631   -5.5486   -4.0367 H         1 UNK         0.1631 
     84 H84        28.8692   -6.6173   -6.4582 H         1 UNK         0.0717 
     85 H85        29.4154   -5.4220   -7.5956 H         1 UNK         0.0717 
     86 H86        28.0500   -4.5679   -9.1108 H         1 UNK         0.0934 
     87 H87        26.3808   -5.0152   -9.1843 H         1 UNK         0.0934 
     88 H88        26.5546   -2.7015   -9.7997 H         1 UNK         0.0739 
     89 H89        25.0297   -3.3633   -7.4863 H         1 UNK         0.3093 
     90 H90        23.2223   -0.3040   -7.2607 H         1 UNK         0.0818 
     91 H91        21.2835   -1.8191   -7.5420 H         1 UNK         0.0819 
     92 H92        22.0741   -1.5689   -9.0884 H         1 UNK         0.0819 
     93 H93        22.3202   -3.0763   -8.2180 H         1 UNK         0.0819 
     94 H94        22.9243   -2.7000   -5.7996 H         1 UNK         0.3041 
     95 H95        23.4573   -2.6488   -3.5768 H         1 UNK         0.0784 
     96 H96        25.0867   -4.1900   -4.6906 H         1 UNK         0.0793 
     97 H97        26.4318   -3.2154   -4.1128 H         1 UNK         0.0793 
     98 H98        25.4125   -4.0882   -2.9711 H         1 UNK         0.0793 
     99 H99        25.7892   -1.6862   -2.2524 H         1 UNK         0.3024 
    100 H100       25.0596    1.3924   -1.3884 H         1 UNK         0.1171 
    101 H101       24.2574    1.0767    0.9620 H         1 UNK         0.0786 
    102 H102       22.9284    0.9965   -0.1796 H         1 UNK         0.0786 
    103 H103       23.5635   -0.4846    0.5233 H         1 UNK         0.0786 
    104 H104       25.9841   -0.9109    0.2147 H         1 UNK         0.2977 
    105 H105       27.1041   -2.1594   -6.3234 H         1 UNK         0.3127 
    106 H106       29.7281   -1.0559   -6.5454 H         1 UNK         0.0770 
    107 H107       28.7472   -1.9484   -4.4078 H         1 UNK         0.0814 
    108 H108       27.6238   -0.5965   -4.3528 H         1 UNK         0.0814 
    109 H109       29.3468   -0.3064   -4.2318 H         1 UNK         0.0814 
    110 H110       26.4614    0.4196   -6.3841 H         1 UNK         0.2983 
    111 H111       27.2431    3.1263   -6.6127 H         1 UNK         0.0947 
    112 H112       24.6444    1.7742   -7.5233 H         1 UNK         0.0806 
    113 H113       24.8640    3.4988   -7.2606 H         1 UNK         0.0806 
    114 H114       24.9719    2.3861   -5.9039 H         1 UNK         0.0806 
    115 H115       26.5064    0.7309   -9.1769 H         1 UNK         0.3000 
    116 H116       26.8275    2.5396  -11.3725 H         1 UNK         0.0850 
    117 H117       26.8629    0.4387  -12.7335 H         1 UNK         0.0810 
    118 H118       25.5374    0.4460  -11.5808 H         1 UNK         0.0810 
    119 H119       26.9751   -0.5200  -11.2626 H         1 UNK         0.0810 
    120 H120       29.0781    0.0679   -9.9740 H         1 UNK         0.3040 
    121 H121       31.1635    0.7103  -11.8693 H         1 UNK         0.0766 
    122 H122       31.2177   -1.0178   -9.3371 H         1 UNK         0.0812 
    123 H123       32.4419   -1.0024  -10.6006 H         1 UNK         0.0812 
    124 H124       30.8230   -1.5805  -10.9587 H         1 UNK         0.0812 
    125 H125       30.4183    1.8498   -8.6256 H         1 UNK         0.3205 
    126 H126       31.2772    3.2815   -7.2192 H         1 UNK         0.0754 
    127 H127       33.3675    4.1467   -9.2827 H         1 UNK         0.0769 
    128 H128       31.7431    4.8213   -9.1509 H         1 UNK         0.0769 
    129 H129       32.8890    5.0150   -7.8353 H         1 UNK         0.0769 
    130 H130       32.5937    0.5182   -7.9861 H         1 UNK         0.2981 
    131 H131       34.0523   -0.9215   -7.2253 H         1 UNK         0.0541 
    132 H132       35.2577    1.3766   -8.7820 H         1 UNK         0.3459 
    133 H133       36.9592    1.2383   -8.4078 H         1 UNK         0.3459 
    134 H134       34.6991   -0.8844   -4.7991 H         1 UNK         0.0612 
    135 H135       34.0961    0.7461   -4.6694 H         1 UNK         0.0612 
    136 H136       33.0513   -2.8877   -5.8964 H         1 UNK         0.0624 
    137 H137       33.3555   -2.8818   -4.1746 H         1 UNK         0.0624 
@<TRIPOS>BOND
     1    1    2 1    
     2    1   72 1    
     3    1   73 1    
     4    1   74 1    
     5    2    3 2    
     6    2    4 am   BACKBONE|DICT|INTERRES
     7    4    5 1    
     8    4   75 1    
     9    5    6 1    
    10    5   35 1    
    11    5   76 1    
    12    6    7 1    
    13    6   77 1    
    14    6   78 1    
    15    7    8 1    
    16    8    9 1    
    17    8   79 1    
    18    8   80 1    
    19    9   10 ar   
    20    9   14 ar   
    21   10   11 ar   
    22   10   81 1    
    23   11   12 ar   
    24   11   71 1    
    25   12   13 ar   
    26   12   82 1    
    27   13   14 ar   
    28   13   15 1    
    29   14   83 1    
    30   15   16 1    
    31   15   84 1    
    32   15   85 1    
    33   16   17 1    
    34   17   18 1    
    35   17   86 1    
    36   17   87 1    
    37   18   19 1    
    38   18   37 1    
    39   18   88 1    
    40   19   20 am   BACKBONE|DICT|INTERRES
    41   19   89 1    
    42   20   21 2    
    43   20   22 1    
    44   22   23 1    
    45   22   24 1    
    46   22   90 1    
    47   23   91 1    
    48   23   92 1    
    49   23   93 1    
    50   24   25 am   BACKBONE|DICT|INTERRES
    51   24   94 1    
    52   25   26 2    
    53   25   27 1    
    54   27   28 1    
    55   27   29 1    
    56   27   95 1    
    57   28   96 1    
    58   28   97 1    
    59   28   98 1    
    60   29   30 am   BACKBONE|DICT|INTERRES
    61   29   99 1    
    62   30   31 2    
    63   30   32 1    
    64   32   33 1    
    65   32   34 1    
    66   32  100 1    
    67   33  101 1    
    68   33  102 1    
    69   33  103 1    
    70   34   35 am   BACKBONE|DICT|INTERRES
    71   34  104 1    
    72   35   36 2    
    73   37   38 2    
    74   37   39 am   BACKBONE|DICT|INTERRES
    75   39   40 1    
    76   39  105 1    
    77   40   41 1    
    78   40   42 1    
    79   40  106 1    
    80   41  107 1    
    81   41  108 1    
    82   41  109 1    
    83   42   43 2    
    84   42   44 am   BACKBONE|DICT|INTERRES
    85   44   45 1    
    86   44  110 1    
    87   45   46 1    
    88   45   47 1    
    89   45  111 1    
    90   46  112 1    
    91   46  113 1    
    92   46  114 1    
    93   47   48 2    
    94   47   49 am   BACKBONE|DICT|INTERRES
    95   49   50 1    
    96   49  115 1    
    97   50   51 1    
    98   50   52 1    
    99   50  116 1    
   100   51  117 1    
   101   51  118 1    
   102   51  119 1    
   103   52   53 2    
   104   52   54 am   BACKBONE|DICT|INTERRES
   105   54   55 1    
   106   54  120 1    
   107   55   56 1    
   108   55   57 1    
   109   55  121 1    
   110   56  122 1    
   111   56  123 1    
   112   56  124 1    
   113   57   58 2    
   114   57   59 am   BACKBONE|DICT|INTERRES
   115   59   60 1    
   116   59  125 1    
   117   60   61 1    
   118   60   62 1    
   119   60  126 1    
   120   61  127 1    
   121   61  128 1    
   122   61  129 1    
   123   62   63 2    
   124   62   64 am   BACKBONE|DICT|INTERRES
   125   64   65 1    
   126   64  130 1    
   127   65   66 1    
   128   65   69 1    
   129   65  131 1    
   130   66   67 am   BACKBONE|DICT|INTERRES
   131   66   68 2    
   132   67  132 1    
   133   67  133 1    
   134   69   70 1    
   135   69  134 1    
   136   69  135 1    
   137   70   71 1    
   138   71  136 1    
   139   71  137 1    
@<TRIPOS>SUBSTRUCTURE
     1 UNK         1 GROUP             0       ****    0 ROOT    
