@<TRIPOS>MOLECULE
3R137
137   139    1
SMALL
USER_CHARGES


@<TRIPOS>ATOM
      1 CA         24.4474   -6.5384   -4.0987 C.3       0 UNK        -0.2020 
      2 C          25.5224   -5.5129   -3.7737 C.2       0 UNK         0.4855 
      3 O          25.8651   -4.6985   -4.6300 O.2       0 UNK        -0.5197 
      4 N          26.0444   -5.5359   -2.5386 N.am      1 UNK        -0.4892 
      5 CA         27.0985   -4.6454   -2.0304 C.3       1 UNK         0.0835 
      6 C6         28.4725   -4.9236   -2.7066 C.3       12 UNK        -0.0855 
      7 S7         29.8798   -4.6555   -1.5791 S.3       12 UNK        -0.2931 
      8 C8         31.1804   -4.0694   -2.7249 C.3       12 UNK         0.0378 
      9 C9         31.1069   -2.5843   -3.0823 C.ar      12 UNK        -0.0802 
     10 C10        31.5717   -2.1516   -4.3297 C.ar      12 UNK        -0.0944 
     11 C11        31.5599   -0.7928   -4.6649 C.ar      12 UNK        -0.0787 
     12 C12        31.0683    0.1390   -3.7483 C.ar      12 UNK        -0.0862 
     13 C13        30.5923   -0.2768   -2.5040 C.ar      12 UNK        -0.0733 
     14 C14        30.6303   -1.6341   -2.1722 C.ar      12 UNK        -0.0832 
     15 C15        30.0415    0.7296   -1.5063 C.3       12 UNK         0.0240 
     16 S16        28.2750    0.4338   -1.1897 S.3       12 UNK        -0.2522 
     17 C17        27.4390    1.6351   -2.2726 C.3       12 UNK        -0.0967 
     18 CA         27.7201    1.5388   -3.7981 C.3       5 UNK         0.0660 
     19 N          27.5365    0.2016   -4.3830 N.am      5 UNK        -0.4015 
     20 C          27.8154   -0.1035   -5.6641 C.2       4 UNK         0.4946 
     21 O          28.3530    0.6729   -6.4541 O.2       4 UNK        -0.5353 
     22 CA         27.3773   -1.4794   -6.1907 C.3       4 UNK         0.0277 
     23 CB         28.4579   -2.5322   -5.9177 C.3       4 UNK        -0.1981 
     24 N          26.0880   -1.9077   -5.6447 N.am      4 UNK        -0.4209 
     25 C          24.9264   -1.2852   -5.8983 C.2       3 UNK         0.4942 
     26 O          24.8140   -0.3362   -6.6727 O.2       3 UNK        -0.5208 
     27 CA         23.6918   -1.7477   -5.1092 C.3       3 UNK         0.0250 
     28 CB         23.0322   -2.9704   -5.7664 C.3       3 UNK        -0.1990 
     29 N          24.0139   -2.0289   -3.7091 N.am      3 UNK        -0.4232 
     30 C          24.3936   -1.0911   -2.8283 C.2       2 UNK         0.4993 
     31 O          24.4331    0.1120   -3.0891 O.2       2 UNK        -0.5286 
     32 CA         24.8403   -1.5753   -1.4379 C.3       2 UNK         0.0209 
     33 CB         23.6491   -1.5984   -0.4675 C.3       2 UNK        -0.1931 
     34 N          25.4865   -2.8932   -1.4535 N.am      2 UNK        -0.4546 
     35 C          26.6437   -3.1670   -2.0766 C.2       1 UNK         0.5154 
     36 O          27.2748   -2.3275   -2.7181 O.2       1 UNK        -0.5181 
     37 C          26.8642    2.5954   -4.5250 C.2       5 UNK         0.5014 
     38 O          27.3858    3.6486   -4.8932 O.2       5 UNK        -0.5248 
     39 N          25.5690    2.2948   -4.7055 N.am      6 UNK        -0.4434 
     40 CA         24.5912    3.1700   -5.3547 C.3       6 UNK         0.0363 
     41 CB         23.1791    2.5932   -5.1645 C.3       6 UNK        -0.1936 
     42 C          24.8867    3.4097   -6.8443 C.2       6 UNK         0.5081 
     43 O          24.8070    4.5511   -7.2997 O.2       6 UNK        -0.5248 
     44 N          25.2216    2.3383   -7.5750 N.am      7 UNK        -0.4718 
     45 CA         25.5527    2.3865   -9.0010 C.3       7 UNK         0.0273 
     46 CB         25.4307    0.9731   -9.5940 C.3       7 UNK        -0.1935 
     47 C          26.9521    2.9553   -9.2880 C.2       7 UNK         0.5018 
     48 O          27.1686    3.4638  -10.3886 O.2       7 UNK        -0.5186 
     49 N          27.8739    2.8226   -8.3205 N.am      8 UNK        -0.4240 
     50 CA         29.3180    3.0710   -8.4259 C.3       8 UNK         0.0235 
     51 CB         29.6155    4.5695   -8.6460 C.3       8 UNK        -0.2000 
     52 C          29.9729    2.1528   -9.4782 C.2       8 UNK         0.4941 
     53 O          30.8168    2.6022  -10.2562 O.2       8 UNK        -0.5273 
     54 N          29.5399    0.8862   -9.4994 N.am      9 UNK        -0.4262 
     55 CA         29.8963   -0.1164  -10.4968 C.3       9 UNK         0.0264 
     56 CB         28.8159   -0.1458  -11.5938 C.3       9 UNK        -0.1955 
     57 C          30.0057   -1.4731   -9.7831 C.2       9 UNK         0.5031 
     58 O          28.9760   -1.9802   -9.3410 O.2       9 UNK        -0.5390 
     59 N          31.1943   -2.0711   -9.6409 N.am      10 UNK        -0.4204 
     60 CA         32.5211   -1.5553   -9.9670 C.3       10 UNK         0.0237 
     61 CB         32.9047   -1.9407  -11.4063 C.3       10 UNK        -0.1985 
     62 C          33.5042   -2.1370   -8.9484 C.2       10 UNK         0.4970 
     63 O          33.3165   -3.2708   -8.4996 O.2       10 UNK        -0.4914 
     64 N          34.5009   -1.3317   -8.5777 N.am      11 UNK        -0.4285 
     65 CA         35.4077   -1.5805   -7.4476 C.3       11 UNK         0.1007 
     66 C          36.7675   -0.8327   -7.5689 C.2       11 UNK         0.5703 
     67 N          37.1257   -0.2910   -8.7284 N.am      11 UNK        -0.7361 
     68 O          37.5287   -0.7603   -6.6069 O.2       11 UNK        -0.4986 
     69 C69        34.6969   -1.3814   -6.0743 C.3       12 UNK        -0.0947 
     70 S70        33.8100    0.2128   -5.9262 S.3       12 UNK        -0.2240 
     71 C71        32.0679   -0.3171   -6.0162 C.3       12 UNK         0.0194 
     72 H72        24.7508   -7.1374   -4.9569 H         1 UNK         0.0906 
     73 H73        24.2598   -7.2134   -3.2639 H         1 UNK         0.0906 
     74 H74        23.5126   -6.0369   -4.3474 H         1 UNK         0.0906 
     75 H75        25.7094   -6.2259   -1.8794 H         1 UNK         0.3140 
     76 H76        27.1940   -4.8918   -0.9714 H         1 UNK         0.1085 
     77 H77        28.5954   -4.3519   -3.6246 H         1 UNK         0.0836 
     78 H78        28.5288   -5.9687   -3.0149 H         1 UNK         0.0836 
     79 H79        31.1530   -4.6805   -3.6285 H         1 UNK         0.0731 
     80 H80        32.1501   -4.2535   -2.2610 H         1 UNK         0.0731 
     81 H81        31.9478   -2.8744   -5.0402 H         1 UNK         0.1312 
     82 H82        31.0579    1.1882   -4.0090 H         1 UNK         0.1406 
     83 H83        30.2700   -1.9449   -1.2017 H         1 UNK         0.1631 
     84 H84        30.1971    1.7556   -1.8428 H         1 UNK         0.0717 
     85 H85        30.5871    0.6285   -0.5672 H         1 UNK         0.0717 
     86 H86        26.3712    1.5342   -2.0734 H         1 UNK         0.0934 
     87 H87        27.7056    2.6309   -1.9121 H         1 UNK         0.0934 
     88 H88        28.7623    1.8123   -3.9640 H         1 UNK         0.0739 
     89 H89        27.1913   -0.5296   -3.7692 H         1 UNK         0.3093 
     90 H90        27.2563   -1.3984   -7.2730 H         1 UNK         0.0818 
     91 H91        28.1250   -3.5350   -6.1853 H         1 UNK         0.0819 
     92 H92        29.3556   -2.3180   -6.4985 H         1 UNK         0.0819 
     93 H93        28.7496   -2.5332   -4.8693 H         1 UNK         0.0819 
     94 H94        26.0951   -2.7104   -5.0219 H         1 UNK         0.3041 
     95 H95        22.9670   -0.9307   -5.1236 H         1 UNK         0.0784 
     96 H96        22.7217   -2.7379   -6.7859 H         1 UNK         0.0793 
     97 H97        23.7100   -3.8214   -5.8237 H         1 UNK         0.0793 
     98 H98        22.1419   -3.2839   -5.2211 H         1 UNK         0.0793 
     99 H99        24.0414   -2.9970   -3.4262 H         1 UNK         0.3024 
    100 H100       25.5699   -0.8530   -1.0664 H         1 UNK         0.1171 
    101 H101       23.9669   -1.8462    0.5454 H         1 UNK         0.0786 
    102 H102       23.1649   -0.6216   -0.4227 H         1 UNK         0.0786 
    103 H103       22.8928   -2.3235   -0.7708 H         1 UNK         0.0786 
    104 H104       25.0091   -3.6416   -0.9717 H         1 UNK         0.2977 
    105 H105       25.2145    1.4212   -4.3229 H         1 UNK         0.3127 
    106 H106       24.6312    4.1382   -4.8510 H         1 UNK         0.0770 
    107 H107       23.0786    1.6105   -5.6265 H         1 UNK         0.0814 
    108 H108       22.4277    3.2439   -5.6136 H         1 UNK         0.0814 
    109 H109       22.9314    2.4912   -4.1077 H         1 UNK         0.0814 
    110 H110       25.2024    1.4170   -7.1393 H         1 UNK         0.2983 
    111 H111       24.8269    3.0308   -9.5023 H         1 UNK         0.0947 
    112 H112       26.1349    0.2798   -9.1314 H         1 UNK         0.0806 
    113 H113       25.6335    0.9792  -10.6658 H         1 UNK         0.0806 
    114 H114       24.4272    0.5702   -9.4559 H         1 UNK         0.0806 
    115 H115       27.5948    2.3423   -7.4716 H         1 UNK         0.3000 
    116 H116       29.7480    2.7889   -7.4636 H         1 UNK         0.0850 
    117 H117       29.1352    5.1833   -7.8839 H         1 UNK         0.0810 
    118 H118       29.2722    4.9145   -9.6216 H         1 UNK         0.0810 
    119 H119       30.6871    4.7649   -8.5922 H         1 UNK         0.0810 
    120 H120       28.9027    0.5784   -8.7735 H         1 UNK         0.3040 
    121 H121       30.8320    0.1501  -10.9851 H         1 UNK         0.0766 
    122 H122       29.0514   -0.8944  -12.3512 H         1 UNK         0.0812 
    123 H123       28.7399    0.8171  -12.0995 H         1 UNK         0.0812 
    124 H124       27.8318   -0.3866  -11.1900 H         1 UNK         0.0812 
    125 H125       31.2315   -2.9513   -9.1419 H         1 UNK         0.3205 
    126 H126       32.5423   -0.4705   -9.8504 H         1 UNK         0.0754 
    127 H127       33.8973   -1.5668  -11.6604 H         1 UNK         0.0769 
    128 H128       32.2073   -1.5261  -12.1341 H         1 UNK         0.0769 
    129 H129       32.9194   -3.0232  -11.5407 H         1 UNK         0.0769 
    130 H130       34.5756   -0.4122   -8.9880 H         1 UNK         0.2981 
    131 H131       35.6984   -2.6312   -7.5017 H         1 UNK         0.0541 
    132 H132       38.0135    0.1831   -8.7878 H         1 UNK         0.3459 
    133 H133       36.5632   -0.3997   -9.5561 H         1 UNK         0.3459 
    134 H134       35.4034   -1.4627   -5.2468 H         1 UNK         0.0612 
    135 H135       33.9917   -2.1970   -5.9197 H         1 UNK         0.0612 
    136 H136       31.4621    0.5238   -6.3583 H         1 UNK         0.0624 
    137 H137       31.9438   -1.0983   -6.7655 H         1 UNK         0.0624 
@<TRIPOS>BOND
     1    1    2 1    
     2    1   72 1    
     3    1   73 1    
     4    1   74 1    
     5    2    3 2    
     6    2    4 am   BACKBONE|DICT|INTERRES
     7    4    5 1    
     8    4   75 1    
     9    5    6 1    
    10    5   35 1    
    11    5   76 1    
    12    6    7 1    
    13    6   77 1    
    14    6   78 1    
    15    7    8 1    
    16    8    9 1    
    17    8   79 1    
    18    8   80 1    
    19    9   10 ar   
    20    9   14 ar   
    21   10   11 ar   
    22   10   81 1    
    23   11   12 ar   
    24   11   71 1    
    25   12   13 ar   
    26   12   82 1    
    27   13   14 ar   
    28   13   15 1    
    29   14   83 1    
    30   15   16 1    
    31   15   84 1    
    32   15   85 1    
    33   16   17 1    
    34   17   18 1    
    35   17   86 1    
    36   17   87 1    
    37   18   19 1    
    38   18   37 1    
    39   18   88 1    
    40   19   20 am   BACKBONE|DICT|INTERRES
    41   19   89 1    
    42   20   21 2    
    43   20   22 1    
    44   22   23 1    
    45   22   24 1    
    46   22   90 1    
    47   23   91 1    
    48   23   92 1    
    49   23   93 1    
    50   24   25 am   BACKBONE|DICT|INTERRES
    51   24   94 1    
    52   25   26 2    
    53   25   27 1    
    54   27   28 1    
    55   27   29 1    
    56   27   95 1    
    57   28   96 1    
    58   28   97 1    
    59   28   98 1    
    60   29   30 am   BACKBONE|DICT|INTERRES
    61   29   99 1    
    62   30   31 2    
    63   30   32 1    
    64   32   33 1    
    65   32   34 1    
    66   32  100 1    
    67   33  101 1    
    68   33  102 1    
    69   33  103 1    
    70   34   35 am   BACKBONE|DICT|INTERRES
    71   34  104 1    
    72   35   36 2    
    73   37   38 2    
    74   37   39 am   BACKBONE|DICT|INTERRES
    75   39   40 1    
    76   39  105 1    
    77   40   41 1    
    78   40   42 1    
    79   40  106 1    
    80   41  107 1    
    81   41  108 1    
    82   41  109 1    
    83   42   43 2    
    84   42   44 am   BACKBONE|DICT|INTERRES
    85   44   45 1    
    86   44  110 1    
    87   45   46 1    
    88   45   47 1    
    89   45  111 1    
    90   46  112 1    
    91   46  113 1    
    92   46  114 1    
    93   47   48 2    
    94   47   49 am   BACKBONE|DICT|INTERRES
    95   49   50 1    
    96   49  115 1    
    97   50   51 1    
    98   50   52 1    
    99   50  116 1    
   100   51  117 1    
   101   51  118 1    
   102   51  119 1    
   103   52   53 2    
   104   52   54 am   BACKBONE|DICT|INTERRES
   105   54   55 1    
   106   54  120 1    
   107   55   56 1    
   108   55   57 1    
   109   55  121 1    
   110   56  122 1    
   111   56  123 1    
   112   56  124 1    
   113   57   58 2    
   114   57   59 am   BACKBONE|DICT|INTERRES
   115   59   60 1    
   116   59  125 1    
   117   60   61 1    
   118   60   62 1    
   119   60  126 1    
   120   61  127 1    
   121   61  128 1    
   122   61  129 1    
   123   62   63 2    
   124   62   64 am   BACKBONE|DICT|INTERRES
   125   64   65 1    
   126   64  130 1    
   127   65   66 1    
   128   65   69 1    
   129   65  131 1    
   130   66   67 am   BACKBONE|DICT|INTERRES
   131   66   68 2    
   132   67  132 1    
   133   67  133 1    
   134   69   70 1    
   135   69  134 1    
   136   69  135 1    
   137   70   71 1    
   138   71  136 1    
   139   71  137 1    
@<TRIPOS>SUBSTRUCTURE
     1 UNK         1 GROUP             0       ****    0 ROOT    
