@<TRIPOS>MOLECULE
3R137
137   139    1
SMALL
USER_CHARGES


@<TRIPOS>ATOM
      1 CA         27.0538   -0.7713    4.7110 C.3       0 UNK        -0.2020 
      2 C          27.5279   -0.6326    3.2719 C.2       0 UNK         0.4855 
      3 O          28.3262    0.2556    2.9726 O.2       0 UNK        -0.5197 
      4 N          27.0417   -1.5001    2.3795 N.am      1 UNK        -0.4892 
      5 CA         27.3361   -1.5110    0.9481 C.3       1 UNK         0.0835 
      6 C6         28.7274   -2.1276    0.6394 C.3       12 UNK        -0.0855 
      7 S7         29.3599   -1.6714   -1.0132 S.3       12 UNK        -0.2931 
      8 C8         29.5154   -3.3218   -1.7739 C.3       12 UNK         0.0378 
      9 C9         29.9817   -3.2880   -3.2267 C.ar      12 UNK        -0.0802 
     10 C10        31.0518   -2.4784   -3.6235 C.ar      12 UNK        -0.0944 
     11 C11        31.5222   -2.5090   -4.9395 C.ar      12 UNK        -0.0787 
     12 C12        30.9158   -3.3616   -5.8676 C.ar      12 UNK        -0.0862 
     13 C13        29.8498   -4.1827   -5.4847 C.ar      12 UNK        -0.0733 
     14 C14        29.3847   -4.1349   -4.1664 C.ar      12 UNK        -0.0832 
     15 C15        29.2473   -5.1750   -6.4724 C.3       12 UNK         0.0240 
     16 S16        28.2642   -4.3781   -7.7796 S.3       12 UNK        -0.2522 
     17 C17        26.8107   -3.7747   -6.8549 C.3       12 UNK        -0.0967 
     18 CA         26.1891   -2.5139   -7.5054 C.3       5 UNK         0.0660 
     19 N          24.8900   -2.1900   -6.9252 N.am      5 UNK        -0.4015 
     20 C          23.8340   -1.7425   -7.6177 C.2       4 UNK         0.4946 
     21 O          23.7897   -1.6867   -8.8474 O.2       4 UNK        -0.5353 
     22 CA         22.6163   -1.2571   -6.8065 C.3       4 UNK         0.0277 
     23 CB         21.5771   -2.3822   -6.6734 C.3       4 UNK        -0.1981 
     24 N          22.9520   -0.7488   -5.4723 N.am      4 UNK        -0.4209 
     25 C          23.7561    0.2966   -5.2294 C.2       3 UNK         0.4942 
     26 O          24.2819    0.9766   -6.1087 O.2       3 UNK        -0.5208 
     27 CA         24.0829    0.5988   -3.7578 C.3       3 UNK         0.0250 
     28 CB         23.0398    1.5593   -3.1652 C.3       3 UNK        -0.1990 
     29 N          24.2127   -0.5810   -2.8905 N.am      3 UNK        -0.4232 
     30 C          24.9898   -1.6494   -3.1211 C.2       2 UNK         0.4993 
     31 O          25.6444   -1.8195   -4.1517 O.2       2 UNK        -0.5286 
     32 CA         25.1139   -2.6543   -1.9759 C.3       2 UNK         0.0209 
     33 CB         25.4934   -4.0656   -2.4643 C.3       2 UNK        -0.1931 
     34 N          26.1525   -2.1349   -1.0959 N.am      2 UNK        -0.4546 
     35 C          26.1769   -2.2340    0.2348 C.2       1 UNK         0.5154 
     36 O          25.3323   -2.8502    0.8932 O.2       1 UNK        -0.5181 
     37 C          27.1098   -1.2876   -7.3882 C.2       5 UNK         0.5014 
     38 O          27.6257   -0.8216   -8.4031 O.2       5 UNK        -0.5248 
     39 N          27.2941   -0.7813   -6.1611 N.am      6 UNK        -0.4434 
     40 CA         28.3029    0.2196   -5.8054 C.3       6 UNK         0.0363 
     41 CB         28.3212    0.3990   -4.2800 C.3       6 UNK        -0.1936 
     42 C          28.1780    1.5775   -6.5213 C.2       6 UNK         0.5081 
     43 O          29.1891    2.2619   -6.6750 O.2       6 UNK        -0.5248 
     44 N          26.9671    1.9529   -6.9577 N.am      7 UNK        -0.4718 
     45 CA         26.7367    3.1579   -7.7613 C.3       7 UNK         0.0273 
     46 CB         25.2654    3.5839   -7.6327 C.3       7 UNK        -0.1935 
     47 C          27.1107    2.9836   -9.2460 C.2       7 UNK         0.5018 
     48 O          27.2997    3.9916   -9.9287 O.2       7 UNK        -0.5186 
     49 N          27.1816    1.7353   -9.7289 N.am      8 UNK        -0.4240 
     50 CA         27.4535    1.3940  -11.1270 C.3       8 UNK         0.0235 
     51 CB         26.4278    0.3475  -11.5953 C.3       8 UNK        -0.2000 
     52 C          28.8821    0.8661  -11.3244 C.2       8 UNK         0.4941 
     53 O          29.5075    1.1905  -12.3353 O.2       8 UNK        -0.5273 
     54 N          29.3644    0.0485  -10.3799 N.am      9 UNK        -0.4262 
     55 CA         30.6905   -0.5672  -10.3891 C.3       9 UNK         0.0264 
     56 CB         30.7444   -1.6419   -9.2907 C.3       9 UNK        -0.1955 
     57 C          31.8199    0.4567  -10.1931 C.2       9 UNK         0.5031 
     58 O          31.6412    1.4609   -9.4988 O.2       9 UNK        -0.5390 
     59 N          32.9888    0.1546  -10.7704 N.am      10 UNK        -0.4204 
     60 CA         34.2181    0.9384  -10.6394 C.3       10 UNK         0.0237 
     61 CB         35.1123    0.6755  -11.8663 C.3       10 UNK        -0.1985 
     62 C          34.9272    0.6250   -9.3085 C.2       10 UNK         0.4970 
     63 O          36.0107    0.0376   -9.3094 O.2       10 UNK        -0.4914 
     64 N          34.2837    0.9966   -8.1958 N.am      11 UNK        -0.4285 
     65 CA         34.7738    0.7791   -6.8245 C.3       11 UNK         0.1007 
     66 C          36.0298    1.6134   -6.4343 C.2       11 UNK         0.5703 
     67 N          36.3922    2.6586   -7.1693 N.am      11 UNK        -0.7361 
     68 O          36.6906    1.3005   -5.4466 O.2       11 UNK        -0.4986 
     69 C69        33.6518    0.9677   -5.7702 C.3       12 UNK        -0.0947 
     70 S70        32.1820   -0.0713   -6.0598 S.3       12 UNK        -0.2240 
     71 C71        32.7135   -1.6503   -5.3362 C.3       12 UNK         0.0194 
     72 H72        27.9033   -0.9477    5.3702 H         1 UNK         0.0906 
     73 H73        26.5570    0.1437    5.0325 H         1 UNK         0.0906 
     74 H74        26.3538   -1.5979    4.8320 H         1 UNK         0.0906 
     75 H75        26.3389   -2.1820    2.6444 H         1 UNK         0.3140 
     76 H76        27.3222   -0.4736    0.6048 H         1 UNK         0.1085 
     77 H77        29.4632   -1.7642    1.3583 H         1 UNK         0.0836 
     78 H78        28.7100   -3.2119    0.7657 H         1 UNK         0.0836 
     79 H79        30.2284   -3.9120   -1.1967 H         1 UNK         0.0731 
     80 H80        28.5546   -3.8323   -1.6956 H         1 UNK         0.0731 
     81 H81        31.5327   -1.8336   -2.9007 H         1 UNK         0.1312 
     82 H82        31.2851   -3.4016   -6.8830 H         1 UNK         0.1406 
     83 H83        28.5770   -4.7869   -3.8637 H         1 UNK         0.1631 
     84 H84        28.6259   -5.9101   -5.9585 H         1 UNK         0.0717 
     85 H85        30.0546   -5.7388   -6.9419 H         1 UNK         0.0717 
     86 H86        26.0767   -4.5819   -6.8378 H         1 UNK         0.0934 
     87 H87        27.0739   -3.5886   -5.8124 H         1 UNK         0.0934 
     88 H88        26.0614   -2.7245   -8.5698 H         1 UNK         0.0739 
     89 H89        24.8600   -2.1515   -5.9112 H         1 UNK         0.3093 
     90 H90        22.1636   -0.4352   -7.3653 H         1 UNK         0.0818 
     91 H91        20.6685   -2.0290   -6.1853 H         1 UNK         0.0819 
     92 H92        21.2875   -2.7634   -7.6538 H         1 UNK         0.0819 
     93 H93        21.9639   -3.2243   -6.0981 H         1 UNK         0.0819 
     94 H94        22.5700   -1.2491   -4.6830 H         1 UNK         0.3041 
     95 H95        25.0479    1.1079   -3.7477 H         1 UNK         0.0784 
     96 H96        22.9377    2.4539   -3.7818 H         1 UNK         0.0793 
     97 H97        22.0547    1.0957   -3.0980 H         1 UNK         0.0793 
     98 H98        23.3252    1.8899   -2.1664 H         1 UNK         0.0793 
     99 H99        23.7338   -0.5271   -2.0026 H         1 UNK         0.3024 
    100 H100       24.1573   -2.7080   -1.4506 H         1 UNK         0.1171 
    101 H101       24.7352   -4.4592   -3.1422 H         1 UNK         0.0786 
    102 H102       25.5791   -4.7629   -1.6309 H         1 UNK         0.0786 
    103 H103       26.4421   -4.0679   -3.0006 H         1 UNK         0.0786 
    104 H104       26.8962   -1.6229   -1.5548 H         1 UNK         0.2977 
    105 H105       26.7813   -1.1958   -5.3842 H         1 UNK         0.3127 
    106 H106       29.2651   -0.2012   -6.1010 H         1 UNK         0.0770 
    107 H107       27.3782    0.7976   -3.9081 H         1 UNK         0.0814 
    108 H108       29.1120    1.0870   -3.9783 H         1 UNK         0.0814 
    109 H109       28.5101   -0.5487   -3.7755 H         1 UNK         0.0814 
    110 H110       26.1568    1.3745   -6.7536 H         1 UNK         0.2983 
    111 H111       27.3544    3.9665   -7.3638 H         1 UNK         0.0947 
    112 H112       25.0814    4.5192   -8.1629 H         1 UNK         0.0806 
    113 H113       24.9864    3.7414   -6.5907 H         1 UNK         0.0806 
    114 H114       24.5917    2.8350   -8.0509 H         1 UNK         0.0806 
    115 H115       27.0846    0.9570   -9.0843 H         1 UNK         0.3000 
    116 H116       27.3401    2.2769  -11.7599 H         1 UNK         0.0850 
    117 H117       26.6010    0.0684  -12.6355 H         1 UNK         0.0810 
    118 H118       25.4107    0.7339  -11.5282 H         1 UNK         0.0810 
    119 H119       26.4769   -0.5648  -10.9989 H         1 UNK         0.0810 
    120 H120       28.7655   -0.1917   -9.5910 H         1 UNK         0.3040 
    121 H121       30.8254   -1.0522  -11.3582 H         1 UNK         0.0766 
    122 H122       31.7262   -2.1144   -9.2416 H         1 UNK         0.0812 
    123 H123       30.0133   -2.4296   -9.4730 H         1 UNK         0.0812 
    124 H124       30.5347   -1.2190   -8.3074 H         1 UNK         0.0812 
    125 H125       33.0638   -0.7094  -11.2886 H         1 UNK         0.3205 
    126 H126       33.9670    2.0015  -10.6355 H         1 UNK         0.0754 
    127 H127       36.0335    1.2572  -11.8096 H         1 UNK         0.0769 
    128 H128       34.6091    0.9594  -12.7909 H         1 UNK         0.0769 
    129 H129       35.3943   -0.3752  -11.9472 H         1 UNK         0.0769 
    130 H130       33.3652    1.4168   -8.2891 H         1 UNK         0.2981 
    131 H131       35.0909   -0.2641   -6.7708 H         1 UNK         0.0541 
    132 H132       35.8550    2.9263   -7.9779 H         1 UNK         0.3459 
    133 H133       37.2095    3.1869   -6.9072 H         1 UNK         0.3459 
    134 H134       33.3198    2.0074   -5.7625 H         1 UNK         0.0612 
    135 H135       34.0241    0.7661   -4.7641 H         1 UNK         0.0612 
    136 H136       33.3387   -2.1805   -6.0561 H         1 UNK         0.0624 
    137 H137       33.3399   -1.4656   -4.4624 H         1 UNK         0.0624 
@<TRIPOS>BOND
     1    1    2 1    
     2    1   72 1    
     3    1   73 1    
     4    1   74 1    
     5    2    3 2    
     6    2    4 am   BACKBONE|DICT|INTERRES
     7    4    5 1    
     8    4   75 1    
     9    5    6 1    
    10    5   35 1    
    11    5   76 1    
    12    6    7 1    
    13    6   77 1    
    14    6   78 1    
    15    7    8 1    
    16    8    9 1    
    17    8   79 1    
    18    8   80 1    
    19    9   10 ar   
    20    9   14 ar   
    21   10   11 ar   
    22   10   81 1    
    23   11   12 ar   
    24   11   71 1    
    25   12   13 ar   
    26   12   82 1    
    27   13   14 ar   
    28   13   15 1    
    29   14   83 1    
    30   15   16 1    
    31   15   84 1    
    32   15   85 1    
    33   16   17 1    
    34   17   18 1    
    35   17   86 1    
    36   17   87 1    
    37   18   19 1    
    38   18   37 1    
    39   18   88 1    
    40   19   20 am   BACKBONE|DICT|INTERRES
    41   19   89 1    
    42   20   21 2    
    43   20   22 1    
    44   22   23 1    
    45   22   24 1    
    46   22   90 1    
    47   23   91 1    
    48   23   92 1    
    49   23   93 1    
    50   24   25 am   BACKBONE|DICT|INTERRES
    51   24   94 1    
    52   25   26 2    
    53   25   27 1    
    54   27   28 1    
    55   27   29 1    
    56   27   95 1    
    57   28   96 1    
    58   28   97 1    
    59   28   98 1    
    60   29   30 am   BACKBONE|DICT|INTERRES
    61   29   99 1    
    62   30   31 2    
    63   30   32 1    
    64   32   33 1    
    65   32   34 1    
    66   32  100 1    
    67   33  101 1    
    68   33  102 1    
    69   33  103 1    
    70   34   35 am   BACKBONE|DICT|INTERRES
    71   34  104 1    
    72   35   36 2    
    73   37   38 2    
    74   37   39 am   BACKBONE|DICT|INTERRES
    75   39   40 1    
    76   39  105 1    
    77   40   41 1    
    78   40   42 1    
    79   40  106 1    
    80   41  107 1    
    81   41  108 1    
    82   41  109 1    
    83   42   43 2    
    84   42   44 am   BACKBONE|DICT|INTERRES
    85   44   45 1    
    86   44  110 1    
    87   45   46 1    
    88   45   47 1    
    89   45  111 1    
    90   46  112 1    
    91   46  113 1    
    92   46  114 1    
    93   47   48 2    
    94   47   49 am   BACKBONE|DICT|INTERRES
    95   49   50 1    
    96   49  115 1    
    97   50   51 1    
    98   50   52 1    
    99   50  116 1    
   100   51  117 1    
   101   51  118 1    
   102   51  119 1    
   103   52   53 2    
   104   52   54 am   BACKBONE|DICT|INTERRES
   105   54   55 1    
   106   54  120 1    
   107   55   56 1    
   108   55   57 1    
   109   55  121 1    
   110   56  122 1    
   111   56  123 1    
   112   56  124 1    
   113   57   58 2    
   114   57   59 am   BACKBONE|DICT|INTERRES
   115   59   60 1    
   116   59  125 1    
   117   60   61 1    
   118   60   62 1    
   119   60  126 1    
   120   61  127 1    
   121   61  128 1    
   122   61  129 1    
   123   62   63 2    
   124   62   64 am   BACKBONE|DICT|INTERRES
   125   64   65 1    
   126   64  130 1    
   127   65   66 1    
   128   65   69 1    
   129   65  131 1    
   130   66   67 am   BACKBONE|DICT|INTERRES
   131   66   68 2    
   132   67  132 1    
   133   67  133 1    
   134   69   70 1    
   135   69  134 1    
   136   69  135 1    
   137   70   71 1    
   138   71  136 1    
   139   71  137 1    
@<TRIPOS>SUBSTRUCTURE
     1 UNK         1 GROUP             0       ****    0 ROOT    
