@<TRIPOS>MOLECULE
3R137
137   139    1
SMALL
USER_CHARGES


@<TRIPOS>ATOM
      1 CA         23.4405   -4.5947   -2.3200 C.3       0 UNK        -0.2020 
      2 C          24.2336   -3.5379   -1.5660 C.2       0 UNK         0.4855 
      3 O          23.6559   -2.7664   -0.7999 O.2       0 UNK        -0.5197 
      4 N          25.5560   -3.5001   -1.7725 N.am      1 UNK        -0.4892 
      5 CA         26.4627   -2.4853   -1.2309 C.3       1 UNK         0.0835 
      6 C6         27.9307   -2.9507   -1.3411 C.3       12 UNK        -0.0855 
      7 S7         29.0988   -1.8968   -0.4152 S.3       12 UNK        -0.2931 
      8 C8         30.6641   -2.7963   -0.6685 C.3       12 UNK         0.0378 
      9 C9         31.0687   -2.8251   -2.1358 C.ar      12 UNK        -0.0802 
     10 C10        31.8388   -1.7925   -2.6796 C.ar      12 UNK        -0.0944 
     11 C11        32.1870   -1.8100   -4.0335 C.ar      12 UNK        -0.0787 
     12 C12        31.7543   -2.8634   -4.8439 C.ar      12 UNK        -0.0862 
     13 C13        30.9821   -3.8998   -4.3122 C.ar      12 UNK        -0.0733 
     14 C14        30.6623   -3.8846   -2.9529 C.ar      12 UNK        -0.0832 
     15 C15        30.5023   -5.0464   -5.1928 C.3       12 UNK         0.0240 
     16 S16        29.6127   -4.4843   -6.6804 S.3       12 UNK        -0.2522 
     17 C17        28.1443   -3.6440   -5.9920 C.3       12 UNK        -0.0967 
     18 CA         27.6682   -2.4983   -6.9274 C.3       5 UNK         0.0660 
     19 N          26.2106   -2.3338   -6.9164 N.am      5 UNK        -0.4015 
     20 C          25.4539   -2.1919   -8.0139 C.2       4 UNK         0.4946 
     21 O          25.9157   -2.0949   -9.1501 O.2       4 UNK        -0.5353 
     22 CA         23.9189   -2.1854   -7.8563 C.3       4 UNK         0.0277 
     23 CB         23.3751   -3.6251   -7.7575 C.3       4 UNK        -0.1981 
     24 N          23.3829   -1.3361   -6.7829 N.am      4 UNK        -0.4209 
     25 C          23.5544   -1.4691   -5.4635 C.2       3 UNK         0.4942 
     26 O          24.2397   -2.3530   -4.9420 O.2       3 UNK        -0.5208 
     27 CA         22.8743   -0.4272   -4.5725 C.3       3 UNK         0.0250 
     28 CB         21.5884   -0.9819   -3.9363 C.3       3 UNK        -0.1990 
     29 N          23.8497   -0.0993   -3.5492 N.am      3 UNK        -0.4232 
     30 C          23.9230    0.9933   -2.7887 C.2       2 UNK         0.4993 
     31 O          23.0815    1.8928   -2.8088 O.2       2 UNK        -0.5286 
     32 CA         25.1588    1.1015   -1.8654 C.3       2 UNK         0.0209 
     33 CB         24.9409    2.0908   -0.7055 C.3       2 UNK        -0.1931 
     34 N          25.5957   -0.1887   -1.3128 N.am      2 UNK        -0.4546 
     35 C          26.2221   -1.1649   -1.9844 C.2       1 UNK         0.5154 
     36 O          26.5361   -1.0824   -3.1763 O.2       1 UNK        -0.5181 
     37 C          28.3802   -1.1565   -6.6744 C.2       5 UNK         0.5014 
     38 O          28.9539   -0.5890   -7.6092 O.2       5 UNK        -0.5248 
     39 N          28.3246   -0.6386   -5.4364 N.am      6 UNK        -0.4434 
     40 CA         28.9971    0.6149   -5.0728 C.3       6 UNK         0.0363 
     41 CB         29.1322    0.7345   -3.5476 C.3       6 UNK        -0.1936 
     42 C          28.2899    1.8449   -5.6619 C.2       6 UNK         0.5081 
     43 O          28.9594    2.8225   -5.9911 O.2       6 UNK        -0.5248 
     44 N          26.9644    1.7548   -5.8499 N.am      7 UNK        -0.4718 
     45 CA         26.1449    2.7734   -6.5183 C.3       7 UNK         0.0273 
     46 CB         24.6584    2.4264   -6.3521 C.3       7 UNK        -0.1935 
     47 C          26.4842    2.9532   -8.0095 C.2       7 UNK         0.5018 
     48 O          26.3293    4.0560   -8.5339 O.2       7 UNK        -0.5186 
     49 N          26.9593    1.8788   -8.6547 N.am      8 UNK        -0.4240 
     50 CA         27.4614    1.8863  -10.0308 C.3       8 UNK         0.0235 
     51 CB         27.1929    0.5114  -10.6635 C.3       8 UNK        -0.2000 
     52 C          28.9607    2.2290  -10.1115 C.2       8 UNK         0.4941 
     53 O          29.4871    2.3163  -11.2215 O.2       8 UNK        -0.5273 
     54 N          29.6212    2.3955   -8.9536 N.am      9 UNK        -0.4262 
     55 CA         31.0556    2.6274   -8.7681 C.3       9 UNK         0.0264 
     56 CB         31.4658    4.0138   -9.3091 C.3       9 UNK        -0.1955 
     57 C          31.9175    1.4794   -9.3257 C.2       9 UNK         0.5031 
     58 O          32.9428    1.7357   -9.9606 O.2       9 UNK        -0.5390 
     59 N          31.5064    0.2280   -9.0597 N.am      10 UNK        -0.4204 
     60 CA         32.1804   -0.9957   -9.5206 C.3       10 UNK         0.0237 
     61 CB         31.3470   -2.2170   -9.1040 C.3       10 UNK        -0.1985 
     62 C          33.6423   -1.1535   -9.0518 C.2       10 UNK         0.4970 
     63 O          34.4036   -1.8772   -9.6948 O.2       10 UNK        -0.4914 
     64 N          34.0095   -0.4648   -7.9645 N.am      11 UNK        -0.4285 
     65 CA         35.3864   -0.3329   -7.4661 C.3       11 UNK         0.1007 
     66 C          36.2789    0.6320   -8.3031 C.2       11 UNK         0.5703 
     67 N          35.7471    1.4058   -9.2431 N.am      11 UNK        -0.7361 
     68 O          37.4903    0.6707   -8.1004 O.2       11 UNK        -0.4986 
     69 C69        35.4050    0.0511   -5.9620 C.3       12 UNK        -0.0947 
     70 S70        34.7335   -1.2743   -4.9082 S.3       12 UNK        -0.2240 
     71 C71        33.0311   -0.6988   -4.6325 C.3       12 UNK         0.0194 
     72 H72        22.8509   -5.1919   -1.6251 H         1 UNK         0.0906 
     73 H73        24.0889   -5.2674   -2.8808 H         1 UNK         0.0906 
     74 H74        22.7605   -4.1184   -3.0255 H         1 UNK         0.0906 
     75 H75        25.9635   -4.1354   -2.4434 H         1 UNK         0.3140 
     76 H76        26.2270   -2.3457   -0.1733 H         1 UNK         0.1085 
     77 H77        28.2288   -2.9893   -2.3892 H         1 UNK         0.0836 
     78 H78        28.0258   -3.9671   -0.9552 H         1 UNK         0.0836 
     79 H79        31.4465   -2.3171   -0.0780 H         1 UNK         0.0731 
     80 H80        30.5685   -3.8111   -0.2788 H         1 UNK         0.0731 
     81 H81        32.1604   -0.9740   -2.0501 H         1 UNK         0.1312 
     82 H82        32.0251   -2.8791   -5.8901 H         1 UNK         0.1406 
     83 H83        30.0750   -4.6888   -2.5309 H         1 UNK         0.1631 
     84 H84        29.8540   -5.7247   -4.6358 H         1 UNK         0.0717 
     85 H85        31.3675   -5.6332   -5.5038 H         1 UNK         0.0717 
     86 H86        27.3665   -4.4043   -5.9025 H         1 UNK         0.0934 
     87 H87        28.3340   -3.2989   -4.9745 H         1 UNK         0.0934 
     88 H88        27.9512   -2.7879   -7.9422 H         1 UNK         0.0739 
     89 H89        25.7290   -2.4043   -6.0217 H         1 UNK         0.3093 
     90 H90        23.5227   -1.7589   -8.7796 H         1 UNK         0.0818 
     91 H91        23.6959   -4.2211   -8.6130 H         1 UNK         0.0819 
     92 H92        23.7249   -4.1359   -6.8599 H         1 UNK         0.0819 
     93 H93        22.2853   -3.6371   -7.7459 H         1 UNK         0.0819 
     94 H94        22.8124   -0.5658   -7.1045 H         1 UNK         0.3041 
     95 H95        22.6436    0.4677   -5.1534 H         1 UNK         0.0784 
     96 H96        20.8685   -1.2762   -4.7009 H         1 UNK         0.0793 
     97 H97        21.7909   -1.8579   -3.3192 H         1 UNK         0.0793 
     98 H98        21.1057   -0.2357   -3.3051 H         1 UNK         0.0793 
     99 H99        24.6152   -0.7673   -3.4934 H         1 UNK         0.3024 
    100 H100       25.9643    1.4955   -2.4877 H         1 UNK         0.1171 
    101 H101       25.8370    2.1874   -0.0922 H         1 UNK         0.0786 
    102 H102       24.7001    3.0876   -1.0776 H         1 UNK         0.0786 
    103 H103       24.1213    1.7767   -0.0581 H         1 UNK         0.0786 
    104 H104       25.3097   -0.3776   -0.3624 H         1 UNK         0.2977 
    105 H105       27.7824   -1.0901   -4.7041 H         1 UNK         0.3127 
    106 H106       30.0072    0.5827   -5.4878 H         1 UNK         0.0770 
    107 H107       28.1792    0.9496   -3.0679 H         1 UNK         0.0814 
    108 H108       29.5281   -0.1804   -3.1079 H         1 UNK         0.0814 
    109 H109       29.8132    1.5443   -3.2838 H         1 UNK         0.0814 
    110 H110       26.5006    0.9111   -5.5466 H         1 UNK         0.2983 
    111 H111       26.3320    3.7306   -6.0261 H         1 UNK         0.0947 
    112 H112       24.4220    1.4505   -6.7757 H         1 UNK         0.0806 
    113 H113       24.0272    3.1610   -6.8546 H         1 UNK         0.0806 
    114 H114       24.3684    2.4257   -5.3027 H         1 UNK         0.0806 
    115 H115       27.0776    1.0163   -8.1414 H         1 UNK         0.3000 
    116 H116       26.9232    2.6388  -10.6113 H         1 UNK         0.0850 
    117 H117       27.5031    0.4917  -11.7090 H         1 UNK         0.0810 
    118 H118       26.1320    0.2626  -10.6381 H         1 UNK         0.0810 
    119 H119       27.7367   -0.2818  -10.1482 H         1 UNK         0.0810 
    120 H120       29.0898    2.3326   -8.0938 H         1 UNK         0.3040 
    121 H121       31.2247    2.6352   -7.6903 H         1 UNK         0.0766 
    122 H122       31.3751    4.0695  -10.3943 H         1 UNK         0.0812 
    123 H123       32.5033    4.2390   -9.0591 H         1 UNK         0.0812 
    124 H124       30.8508    4.8044   -8.8793 H         1 UNK         0.0812 
    125 H125       30.6353    0.0943   -8.5520 H         1 UNK         0.3205 
    126 H126       32.2028   -0.9574  -10.6115 H         1 UNK         0.0754 
    127 H127       31.8133   -3.1471   -9.4318 H         1 UNK         0.0769 
    128 H128       30.3485   -2.1846   -9.5409 H         1 UNK         0.0769 
    129 H129       31.2337   -2.2707   -8.0217 H         1 UNK         0.0769 
    130 H130       33.3196    0.1158   -7.5165 H         1 UNK         0.2981 
    131 H131       35.8610   -1.3118   -7.5584 H         1 UNK         0.0541 
    132 H132       34.7499    1.4004   -9.4390 H         1 UNK         0.3459 
    133 H133       36.3513    2.0146   -9.7711 H         1 UNK         0.3459 
    134 H134       34.8606    0.9809   -5.7876 H         1 UNK         0.0612 
    135 H135       36.4269    0.2306   -5.6227 H         1 UNK         0.0612 
    136 H136       33.0452    0.1762   -3.9808 H         1 UNK         0.0624 
    137 H137       32.5837   -0.3799   -5.5740 H         1 UNK         0.0624 
@<TRIPOS>BOND
     1    1    2 1    
     2    1   72 1    
     3    1   73 1    
     4    1   74 1    
     5    2    3 2    
     6    2    4 am   BACKBONE|DICT|INTERRES
     7    4    5 1    
     8    4   75 1    
     9    5    6 1    
    10    5   35 1    
    11    5   76 1    
    12    6    7 1    
    13    6   77 1    
    14    6   78 1    
    15    7    8 1    
    16    8    9 1    
    17    8   79 1    
    18    8   80 1    
    19    9   10 ar   
    20    9   14 ar   
    21   10   11 ar   
    22   10   81 1    
    23   11   12 ar   
    24   11   71 1    
    25   12   13 ar   
    26   12   82 1    
    27   13   14 ar   
    28   13   15 1    
    29   14   83 1    
    30   15   16 1    
    31   15   84 1    
    32   15   85 1    
    33   16   17 1    
    34   17   18 1    
    35   17   86 1    
    36   17   87 1    
    37   18   19 1    
    38   18   37 1    
    39   18   88 1    
    40   19   20 am   BACKBONE|DICT|INTERRES
    41   19   89 1    
    42   20   21 2    
    43   20   22 1    
    44   22   23 1    
    45   22   24 1    
    46   22   90 1    
    47   23   91 1    
    48   23   92 1    
    49   23   93 1    
    50   24   25 am   BACKBONE|DICT|INTERRES
    51   24   94 1    
    52   25   26 2    
    53   25   27 1    
    54   27   28 1    
    55   27   29 1    
    56   27   95 1    
    57   28   96 1    
    58   28   97 1    
    59   28   98 1    
    60   29   30 am   BACKBONE|DICT|INTERRES
    61   29   99 1    
    62   30   31 2    
    63   30   32 1    
    64   32   33 1    
    65   32   34 1    
    66   32  100 1    
    67   33  101 1    
    68   33  102 1    
    69   33  103 1    
    70   34   35 am   BACKBONE|DICT|INTERRES
    71   34  104 1    
    72   35   36 2    
    73   37   38 2    
    74   37   39 am   BACKBONE|DICT|INTERRES
    75   39   40 1    
    76   39  105 1    
    77   40   41 1    
    78   40   42 1    
    79   40  106 1    
    80   41  107 1    
    81   41  108 1    
    82   41  109 1    
    83   42   43 2    
    84   42   44 am   BACKBONE|DICT|INTERRES
    85   44   45 1    
    86   44  110 1    
    87   45   46 1    
    88   45   47 1    
    89   45  111 1    
    90   46  112 1    
    91   46  113 1    
    92   46  114 1    
    93   47   48 2    
    94   47   49 am   BACKBONE|DICT|INTERRES
    95   49   50 1    
    96   49  115 1    
    97   50   51 1    
    98   50   52 1    
    99   50  116 1    
   100   51  117 1    
   101   51  118 1    
   102   51  119 1    
   103   52   53 2    
   104   52   54 am   BACKBONE|DICT|INTERRES
   105   54   55 1    
   106   54  120 1    
   107   55   56 1    
   108   55   57 1    
   109   55  121 1    
   110   56  122 1    
   111   56  123 1    
   112   56  124 1    
   113   57   58 2    
   114   57   59 am   BACKBONE|DICT|INTERRES
   115   59   60 1    
   116   59  125 1    
   117   60   61 1    
   118   60   62 1    
   119   60  126 1    
   120   61  127 1    
   121   61  128 1    
   122   61  129 1    
   123   62   63 2    
   124   62   64 am   BACKBONE|DICT|INTERRES
   125   64   65 1    
   126   64  130 1    
   127   65   66 1    
   128   65   69 1    
   129   65  131 1    
   130   66   67 am   BACKBONE|DICT|INTERRES
   131   66   68 2    
   132   67  132 1    
   133   67  133 1    
   134   69   70 1    
   135   69  134 1    
   136   69  135 1    
   137   70   71 1    
   138   71  136 1    
   139   71  137 1    
@<TRIPOS>SUBSTRUCTURE
     1 UNK         1 GROUP             0       ****    0 ROOT    
