@<TRIPOS>MOLECULE
3R137
137   139    1
SMALL
USER_CHARGES


@<TRIPOS>ATOM
      1 CA         28.6525   -0.2578   -0.9190 C.3       0 UNK        -0.2020 
      2 C          29.0335   -0.9068    0.4106 C.2       0 UNK         0.4855 
      3 O          29.4094   -0.1936    1.3386 O.2       0 UNK        -0.5197 
      4 N          28.9723   -2.2379    0.5596 N.am      1 UNK        -0.4892 
      5 CA         28.4771   -3.2290   -0.4041 C.3       1 UNK         0.0835 
      6 C6         28.8780   -4.6748   -0.0111 C.3       12 UNK        -0.0855 
      7 S7         30.6850   -4.8578    0.2115 S.3       12 UNK        -0.2931 
      8 C8         31.2148   -5.6423   -1.3487 C.3       12 UNK         0.0378 
      9 C9         30.7974   -4.8481   -2.5805 C.ar      12 UNK        -0.0802 
     10 C10        31.2232   -3.5294   -2.7558 C.ar      12 UNK        -0.0944 
     11 C11        30.7890   -2.7817   -3.8541 C.ar      12 UNK        -0.0787 
     12 C12        29.9608   -3.3810   -4.8113 C.ar      12 UNK        -0.0862 
     13 C13        29.5484   -4.7157   -4.6645 C.ar      12 UNK        -0.0733 
     14 C14        29.9685   -5.4322   -3.5402 C.ar      12 UNK        -0.0832 
     15 C15        28.6598   -5.4549   -5.6699 C.3       12 UNK         0.0240 
     16 S16        28.0462   -4.4932   -7.0906 S.3       12 UNK        -0.2522 
     17 C17        26.7457   -3.4856   -6.3035 C.3       12 UNK        -0.0967 
     18 CA         26.4123   -2.2292   -7.1408 C.3       5 UNK         0.0660 
     19 N          25.1359   -1.6256   -6.7605 N.am      5 UNK        -0.4015 
     20 C          24.4917   -0.6993   -7.4858 C.2       4 UNK         0.4946 
     21 O          24.8749   -0.2940   -8.5836 O.2       4 UNK        -0.5353 
     22 CA         23.2299   -0.0895   -6.8545 C.3       4 UNK         0.0277 
     23 CB         22.0094   -0.9926   -7.0939 C.3       4 UNK        -0.1981 
     24 N          23.3907    0.1589   -5.4193 N.am      4 UNK        -0.4209 
     25 C          24.2460    1.0542   -4.9047 C.2       3 UNK         0.4942 
     26 O          24.9480    1.8017   -5.5866 O.2       3 UNK        -0.5208 
     27 CA         24.3694    1.0894   -3.3719 C.3       3 UNK         0.0250 
     28 CB         23.2761    1.9814   -2.7623 C.3       3 UNK        -0.1990 
     29 N          24.3387   -0.2355   -2.7366 N.am      3 UNK        -0.4232 
     30 C          25.2399   -1.2023   -2.9566 C.2       2 UNK         0.4993 
     31 O          26.1426   -1.1220   -3.7927 O.2       2 UNK        -0.5286 
     32 CA         25.1245   -2.4817   -2.1232 C.3       2 UNK         0.0209 
     33 CB         24.4252   -3.5908   -2.9258 C.3       2 UNK        -0.1931 
     34 N          26.4859   -2.9012   -1.7957 N.am      2 UNK        -0.4546 
     35 C          26.9499   -3.0910   -0.5563 C.2       1 UNK         0.5154 
     36 O          26.2357   -3.1204    0.4488 O.2       1 UNK        -0.5181 
     37 C          27.5468   -1.1910   -7.1044 C.2       5 UNK         0.5014 
     38 O          28.3262   -1.1314   -8.0517 O.2       5 UNK        -0.5248 
     39 N          27.5964   -0.3678   -6.0467 N.am      6 UNK        -0.4434 
     40 CA         28.5590    0.7234   -5.8858 C.3       6 UNK         0.0363 
     41 CB         28.3438    1.4229   -4.5342 C.3       6 UNK        -0.1936 
     42 C          28.5230    1.7366   -7.0370 C.2       6 UNK         0.5081 
     43 O          29.5847    2.1268   -7.5229 O.2       6 UNK        -0.5248 
     44 N          27.3107    2.0999   -7.4765 N.am      7 UNK        -0.4718 
     45 CA         27.0739    2.9406   -8.6488 C.3       7 UNK         0.0273 
     46 CB         25.5957    3.3604   -8.6886 C.3       7 UNK        -0.1935 
     47 C          27.4879    2.2584   -9.9645 C.2       7 UNK         0.5018 
     48 O          28.1610    2.8899  -10.7791 O.2       7 UNK        -0.5186 
     49 N          27.0855    0.9921  -10.1498 N.am      8 UNK        -0.4240 
     50 CA         27.3571    0.2041  -11.3564 C.3       8 UNK         0.0235 
     51 CB         26.4996   -1.0718  -11.3463 C.3       8 UNK        -0.2000 
     52 C          28.8429   -0.1461  -11.5433 C.2       8 UNK         0.4941 
     53 O          29.3664    0.0116  -12.6470 O.2       8 UNK        -0.5273 
     54 N          29.4928   -0.6183  -10.4719 N.am      9 UNK        -0.4262 
     55 CA         30.9024   -1.0170  -10.4584 C.3       9 UNK         0.0264 
     56 CB         31.1349   -2.0064   -9.3031 C.3       9 UNK        -0.1955 
     57 C          31.8679    0.1730  -10.3356 C.2       9 UNK         0.5031 
     58 O          33.0558   -0.0027  -10.6106 O.2       9 UNK        -0.5390 
     59 N          31.3546    1.3391   -9.9130 N.am      10 UNK        -0.4204 
     60 CA         32.0836    2.5713   -9.5969 C.3       10 UNK         0.0237 
     61 CB         32.7378    3.1756  -10.8585 C.3       10 UNK        -0.1985 
     62 C          33.0698    2.3568   -8.4333 C.2       10 UNK         0.4970 
     63 O          34.2639    2.6306   -8.5740 O.2       10 UNK        -0.4914 
     64 N          32.5452    1.8474   -7.3100 N.am      11 UNK        -0.4285 
     65 CA         33.2905    1.6432   -6.0578 C.3       11 UNK         0.1007 
     66 C          33.8137    2.9801   -5.4597 C.2       11 UNK         0.5703 
     67 N          34.9994    2.9726   -4.8657 N.am      11 UNK        -0.7361 
     68 O          33.1373    4.0071   -5.4902 O.2       11 UNK        -0.4986 
     69 C69        32.4490    0.8829   -5.0004 C.3       12 UNK        -0.0947 
     70 S70        32.1313   -0.8657   -5.4134 S.3       12 UNK        -0.2240 
     71 C71        31.1503   -1.3050   -3.9433 C.3       12 UNK         0.0194 
     72 H72        29.0259   -0.8201   -1.7722 H         1 UNK         0.0906 
     73 H73        27.5705   -0.1630   -1.0042 H         1 UNK         0.0906 
     74 H74        29.0775    0.7437   -0.9843 H         1 UNK         0.0906 
     75 H75        29.2418   -2.6273    1.4516 H         1 UNK         0.3140 
     76 H76        28.9358   -3.0213   -1.3698 H         1 UNK         0.1085 
     77 H77        28.3953   -4.9643    0.9246 H         1 UNK         0.0836 
     78 H78        28.5322   -5.3886   -0.7614 H         1 UNK         0.0836 
     79 H79        32.3011   -5.7415   -1.3426 H         1 UNK         0.0731 
     80 H80        30.8151   -6.6570   -1.3832 H         1 UNK         0.0731 
     81 H81        31.8545   -3.0731   -2.0052 H         1 UNK         0.1312 
     82 H82        29.6420   -2.7942   -5.6607 H         1 UNK         0.1406 
     83 H83        29.6456   -6.4571   -3.4127 H         1 UNK         0.1631 
     84 H84        27.8027   -5.8825   -5.1471 H         1 UNK         0.0717 
     85 H85        29.2273   -6.2980   -6.0664 H         1 UNK         0.0717 
     86 H86        25.8615   -4.1179   -6.2096 H         1 UNK         0.0934 
     87 H87        27.0392   -3.2180   -5.2869 H         1 UNK         0.0934 
     88 H88        26.3018   -2.5466   -8.1802 H         1 UNK         0.0739 
     89 H89        24.7812   -1.8546   -5.8447 H         1 UNK         0.3093 
     90 H90        23.0470    0.8697   -7.3442 H         1 UNK         0.0818 
     91 H91        21.0951   -0.5300   -6.7218 H         1 UNK         0.0819 
     92 H92        21.8658   -1.1769   -8.1597 H         1 UNK         0.0819 
     93 H93        22.1175   -1.9628   -6.6074 H         1 UNK         0.0819 
     94 H94        22.8411   -0.4032   -4.7858 H         1 UNK         0.3041 
     95 H95        25.3374    1.5375   -3.1381 H         1 UNK         0.0784 
     96 H96        23.2923    2.9774   -3.2076 H         1 UNK         0.0793 
     97 H97        22.2790    1.5692   -2.9224 H         1 UNK         0.0793 
     98 H98        23.4195    2.1078   -1.6890 H         1 UNK         0.0793 
     99 H99        23.6192   -0.3847   -2.0432 H         1 UNK         0.3024 
    100 H100       24.5496   -2.2694   -1.2186 H         1 UNK         0.1171 
    101 H101       24.3458   -4.5070   -2.3403 H         1 UNK         0.0786 
    102 H102       23.4125   -3.2963   -3.2042 H         1 UNK         0.0786 
    103 H103       24.9626   -3.8304   -3.8434 H         1 UNK         0.0786 
    104 H104       27.1368   -2.8266   -2.5667 H         1 UNK         0.2977 
    105 H105       26.9488   -0.5246   -5.2750 H         1 UNK         0.3127 
    106 H106       29.5487    0.2713   -5.8959 H         1 UNK         0.0770 
    107 H107       27.3929    1.9540   -4.5024 H         1 UNK         0.0814 
    108 H108       29.1293    2.1554   -4.3457 H         1 UNK         0.0814 
    109 H109       28.3518    0.7132   -3.7084 H         1 UNK         0.0814 
    110 H110       26.4935    1.7632   -6.9766 H         1 UNK         0.2983 
    111 H111       27.6806    3.8424   -8.5401 H         1 UNK         0.0947 
    112 H112       25.3951    4.0049   -9.5455 H         1 UNK         0.0806 
    113 H113       25.3184    3.9155   -7.7922 H         1 UNK         0.0806 
    114 H114       24.9314    2.4987   -8.7637 H         1 UNK         0.0806 
    115 H115       26.5064    0.5528   -9.4399 H         1 UNK         0.3000 
    116 H116       27.0527    0.8047  -12.2163 H         1 UNK         0.0850 
    117 H117       26.6715   -1.6668  -12.2443 H         1 UNK         0.0810 
    118 H118       25.4362   -0.8338  -11.3136 H         1 UNK         0.0810 
    119 H119       26.7264   -1.7031  -10.4866 H         1 UNK         0.0810 
    120 H120       28.9823   -0.7436   -9.5945 H         1 UNK         0.3040 
    121 H121       31.1278   -1.5300  -11.3958 H         1 UNK         0.0766 
    122 H122       30.9772   -1.5355   -8.3317 H         1 UNK         0.0812 
    123 H123       32.1562   -2.3891   -9.3149 H         1 UNK         0.0812 
    124 H124       30.4648   -2.8638   -9.3699 H         1 UNK         0.0812 
    125 H125       30.3699    1.3543   -9.6806 H         1 UNK         0.3205 
    126 H126       31.3398    3.2873   -9.2437 H         1 UNK         0.0754 
    127 H127       33.1854    4.1451  -10.6366 H         1 UNK         0.0769 
    128 H128       32.0025    3.3308  -11.6482 H         1 UNK         0.0769 
    129 H129       33.5278    2.5382  -11.2564 H         1 UNK         0.0769 
    130 H130       31.5404    1.7139   -7.2706 H         1 UNK         0.2981 
    131 H131       34.1599    1.0298   -6.3028 H         1 UNK         0.0541 
    132 H132       35.5570    2.1336   -4.8237 H         1 UNK         0.3459 
    133 H133       35.3482    3.8261   -4.4582 H         1 UNK         0.3459 
    134 H134       31.4973    1.3910   -4.8373 H         1 UNK         0.0612 
    135 H135       32.9629    0.8873   -4.0368 H         1 UNK         0.0612 
    136 H136       30.2298   -0.7251   -3.9370 H         1 UNK         0.0624 
    137 H137       31.7036   -0.9983   -3.0543 H         1 UNK         0.0624 
@<TRIPOS>BOND
     1    1    2 1    
     2    1   72 1    
     3    1   73 1    
     4    1   74 1    
     5    2    3 2    
     6    2    4 am   BACKBONE|DICT|INTERRES
     7    4    5 1    
     8    4   75 1    
     9    5    6 1    
    10    5   35 1    
    11    5   76 1    
    12    6    7 1    
    13    6   77 1    
    14    6   78 1    
    15    7    8 1    
    16    8    9 1    
    17    8   79 1    
    18    8   80 1    
    19    9   10 ar   
    20    9   14 ar   
    21   10   11 ar   
    22   10   81 1    
    23   11   12 ar   
    24   11   71 1    
    25   12   13 ar   
    26   12   82 1    
    27   13   14 ar   
    28   13   15 1    
    29   14   83 1    
    30   15   16 1    
    31   15   84 1    
    32   15   85 1    
    33   16   17 1    
    34   17   18 1    
    35   17   86 1    
    36   17   87 1    
    37   18   19 1    
    38   18   37 1    
    39   18   88 1    
    40   19   20 am   BACKBONE|DICT|INTERRES
    41   19   89 1    
    42   20   21 2    
    43   20   22 1    
    44   22   23 1    
    45   22   24 1    
    46   22   90 1    
    47   23   91 1    
    48   23   92 1    
    49   23   93 1    
    50   24   25 am   BACKBONE|DICT|INTERRES
    51   24   94 1    
    52   25   26 2    
    53   25   27 1    
    54   27   28 1    
    55   27   29 1    
    56   27   95 1    
    57   28   96 1    
    58   28   97 1    
    59   28   98 1    
    60   29   30 am   BACKBONE|DICT|INTERRES
    61   29   99 1    
    62   30   31 2    
    63   30   32 1    
    64   32   33 1    
    65   32   34 1    
    66   32  100 1    
    67   33  101 1    
    68   33  102 1    
    69   33  103 1    
    70   34   35 am   BACKBONE|DICT|INTERRES
    71   34  104 1    
    72   35   36 2    
    73   37   38 2    
    74   37   39 am   BACKBONE|DICT|INTERRES
    75   39   40 1    
    76   39  105 1    
    77   40   41 1    
    78   40   42 1    
    79   40  106 1    
    80   41  107 1    
    81   41  108 1    
    82   41  109 1    
    83   42   43 2    
    84   42   44 am   BACKBONE|DICT|INTERRES
    85   44   45 1    
    86   44  110 1    
    87   45   46 1    
    88   45   47 1    
    89   45  111 1    
    90   46  112 1    
    91   46  113 1    
    92   46  114 1    
    93   47   48 2    
    94   47   49 am   BACKBONE|DICT|INTERRES
    95   49   50 1    
    96   49  115 1    
    97   50   51 1    
    98   50   52 1    
    99   50  116 1    
   100   51  117 1    
   101   51  118 1    
   102   51  119 1    
   103   52   53 2    
   104   52   54 am   BACKBONE|DICT|INTERRES
   105   54   55 1    
   106   54  120 1    
   107   55   56 1    
   108   55   57 1    
   109   55  121 1    
   110   56  122 1    
   111   56  123 1    
   112   56  124 1    
   113   57   58 2    
   114   57   59 am   BACKBONE|DICT|INTERRES
   115   59   60 1    
   116   59  125 1    
   117   60   61 1    
   118   60   62 1    
   119   60  126 1    
   120   61  127 1    
   121   61  128 1    
   122   61  129 1    
   123   62   63 2    
   124   62   64 am   BACKBONE|DICT|INTERRES
   125   64   65 1    
   126   64  130 1    
   127   65   66 1    
   128   65   69 1    
   129   65  131 1    
   130   66   67 am   BACKBONE|DICT|INTERRES
   131   66   68 2    
   132   67  132 1    
   133   67  133 1    
   134   69   70 1    
   135   69  134 1    
   136   69  135 1    
   137   70   71 1    
   138   71  136 1    
   139   71  137 1    
@<TRIPOS>SUBSTRUCTURE
     1 UNK         1 GROUP             0       ****    0 ROOT    
