@<TRIPOS>MOLECULE
3R137
137   139    1
SMALL
USER_CHARGES


@<TRIPOS>ATOM
      1 CA         28.9432   -5.9414   -5.6350 C.3       0 UNK        -0.2020 
      2 C          28.0277   -5.3847   -4.5556 C.2       0 UNK         0.4855 
      3 O          26.8337   -5.1970   -4.7952 O.2       0 UNK        -0.5197 
      4 N          28.5890   -5.1230   -3.3673 N.am      1 UNK        -0.4892 
      5 CA         27.8829   -4.6292   -2.1772 C.3       1 UNK         0.0835 
      6 C6         28.7854   -4.7217   -0.8994 C.3       12 UNK        -0.0855 
      7 S7         28.7622   -3.3517    0.3227 S.3       12 UNK        -0.2931 
      8 C8         30.4555   -2.6852    0.2072 C.3       12 UNK         0.0378 
      9 C9         30.6613   -1.8679   -1.0597 C.ar      12 UNK        -0.0802 
     10 C10        31.1050   -2.4878   -2.2312 C.ar      12 UNK        -0.0944 
     11 C11        31.2763   -1.7496   -3.4033 C.ar      12 UNK        -0.0787 
     12 C12        31.0202   -0.3759   -3.3967 C.ar      12 UNK        -0.0862 
     13 C13        30.5986    0.2627   -2.2262 C.ar      12 UNK        -0.0733 
     14 C14        30.4197   -0.4894   -1.0597 C.ar      12 UNK        -0.0832 
     15 C15        30.3444    1.7662   -2.2314 C.3       12 UNK         0.0240 
     16 S16        28.6143    2.2299   -1.8697 S.3       12 UNK        -0.2522 
     17 C17        27.6380    1.0257   -2.8286 C.3       12 UNK        -0.0967 
     18 CA         27.7441    1.2012   -4.3656 C.3       5 UNK         0.0660 
     19 N          27.6152   -0.0823   -5.0566 N.am      5 UNK        -0.4015 
     20 C          27.7943   -0.2824   -6.3694 C.2       4 UNK         0.4946 
     21 O          28.1874    0.5789   -7.1582 O.2       4 UNK        -0.5353 
     22 CA         27.4505   -1.6817   -6.9018 C.3       4 UNK         0.0277 
     23 CB         28.6691   -2.6081   -6.8009 C.3       4 UNK        -0.1981 
     24 N          26.3017   -2.2818   -6.2144 N.am      4 UNK        -0.4209 
     25 C          25.0505   -1.8037   -6.2994 C.2       3 UNK         0.4942 
     26 O          24.7296   -0.8428   -6.9983 O.2       3 UNK        -0.5208 
     27 CA         23.9907   -2.4697   -5.4090 C.3       3 UNK         0.0250 
     28 CB         23.5911   -3.8489   -5.9571 C.3       3 UNK        -0.1990 
     29 N          24.4341   -2.5907   -4.0188 N.am      3 UNK        -0.4232 
     30 C          24.6847   -1.5490   -3.2115 C.2       2 UNK         0.4993 
     31 O          24.5305   -0.3749   -3.5419 O.2       2 UNK        -0.5286 
     32 CA         25.2344   -1.8539   -1.8092 C.3       2 UNK         0.0209 
     33 CB         24.0862   -1.9584   -0.7935 C.3       2 UNK        -0.1931 
     34 N          26.0567   -3.0632   -1.7418 N.am      2 UNK        -0.4546 
     35 C          27.1908   -3.2675   -2.4280 C.2       1 UNK         0.5154 
     36 O          27.6596   -2.4574   -3.2345 O.2       1 UNK        -0.5181 
     37 C          26.7410    2.2434   -4.9020 C.2       5 UNK         0.5014 
     38 O          27.1568    3.3253   -5.3183 O.2       5 UNK        -0.5248 
     39 N          25.4477    1.8852   -4.9209 N.am      6 UNK        -0.4434 
     40 CA         24.3482    2.7190   -5.4159 C.3       6 UNK         0.0363 
     41 CB         23.0051    2.0501   -5.0833 C.3       6 UNK        -0.1936 
     42 C          24.4392    3.0185   -6.9204 C.2       6 UNK         0.5081 
     43 O          24.1324    4.1374   -7.3325 O.2       6 UNK        -0.5248 
     44 N          24.8787    2.0294   -7.7106 N.am      7 UNK        -0.4718 
     45 CA         25.1301    2.1687   -9.1480 C.3       7 UNK         0.0273 
     46 CB         25.2523    0.7685   -9.7714 C.3       7 UNK        -0.1935 
     47 C          26.3811    3.0033   -9.4810 C.2       7 UNK         0.5018 
     48 O          26.5208    3.4226  -10.6307 O.2       7 UNK        -0.5186 
     49 N          27.2706    3.1989   -8.4936 N.am      8 UNK        -0.4240 
     50 CA         28.6041    3.8036   -8.5976 C.3       8 UNK         0.0235 
     51 CB         28.5091    5.3073   -8.9317 C.3       8 UNK        -0.2000 
     52 C          29.5118    3.0184   -9.5650 C.2       8 UNK         0.4941 
     53 O          30.2237    3.6130  -10.3763 O.2       8 UNK        -0.5273 
     54 N          29.4508    1.6832   -9.4673 N.am      9 UNK        -0.4262 
     55 CA         30.1239    0.7425  -10.3666 C.3       9 UNK         0.0264 
     56 CB         29.3286   -0.5743  -10.3817 C.3       9 UNK        -0.1955 
     57 C          31.5972    0.4830  -10.0051 C.2       9 UNK         0.5031 
     58 O          32.2700   -0.2402  -10.7421 O.2       9 UNK        -0.5390 
     59 N          32.0629    1.0229   -8.8663 N.am      10 UNK        -0.4204 
     60 CA         33.4179    0.8887   -8.3053 C.3       10 UNK         0.0237 
     61 CB         34.4371    1.6617   -9.1695 C.3       10 UNK        -0.1985 
     62 C          33.8401   -0.5757   -8.0571 C.2       10 UNK         0.4970 
     63 O          35.0260   -0.8989   -8.1435 O.2       10 UNK        -0.4914 
     64 N          32.8464   -1.4274   -7.7700 N.am      11 UNK        -0.4285 
     65 CA         32.9553   -2.8849   -7.5969 C.3       11 UNK         0.1007 
     66 C          33.3021   -3.6634   -8.9037 C.2       11 UNK         0.5703 
     67 N          33.1902   -3.0669  -10.0863 N.am      11 UNK        -0.7361 
     68 O          33.6447   -4.8423   -8.8513 O.2       11 UNK        -0.4986 
     69 C69        33.8482   -3.3036   -6.3886 C.3       12 UNK        -0.0947 
     70 S70        33.5443   -2.4119   -4.8197 S.3       12 UNK        -0.2240 
     71 C71        31.7322   -2.4370   -4.6777 C.3       12 UNK         0.0194 
     72 H72        29.1995   -6.9773   -5.4150 H         1 UNK         0.0906 
     73 H73        28.4521   -5.9162   -6.6074 H         1 UNK         0.0906 
     74 H74        29.8643   -5.3635   -5.7051 H         1 UNK         0.0906 
     75 H75        29.5796   -5.2767   -3.2540 H         1 UNK         0.3140 
     76 H76        27.0648   -5.3381   -2.0275 H         1 UNK         0.1085 
     77 H77        29.8232   -4.8983   -1.1797 H         1 UNK         0.0836 
     78 H78        28.5113   -5.6251   -0.3521 H         1 UNK         0.0836 
     79 H79        31.1800   -3.4995    0.2604 H         1 UNK         0.0731 
     80 H80        30.6436   -2.0603    1.0815 H         1 UNK         0.0731 
     81 H81        31.3155   -3.5472   -2.2365 H         1 UNK         0.1312 
     82 H82        31.1568    0.1954   -4.3045 H         1 UNK         0.1406 
     83 H83        30.0816   -0.0010   -0.1558 H         1 UNK         0.1631 
     84 H84        30.6244    2.1998   -3.1925 H         1 UNK         0.0717 
     85 H85        30.9929    2.2370   -1.4914 H         1 UNK         0.0717 
     86 H86        27.9688    0.0310   -2.5310 H         1 UNK         0.0934 
     87 H87        26.6024    1.0854   -2.4901 H         1 UNK         0.0934 
     88 H88        28.7440    1.5645   -4.6085 H         1 UNK         0.0739 
     89 H89        27.3759   -0.8838   -4.4806 H         1 UNK         0.3093 
     90 H90        27.1907   -1.5753   -7.9570 H         1 UNK         0.0818 
     91 H91        28.9384   -2.8012   -5.7621 H         1 UNK         0.0819 
     92 H92        28.4760   -3.5622   -7.2895 H         1 UNK         0.0819 
     93 H93        29.5388   -2.1681   -7.2885 H         1 UNK         0.0819 
     94 H94        26.4842   -3.0678   -5.6010 H         1 UNK         0.3041 
     95 H95        23.1041   -1.8317   -5.4202 H         1 UNK         0.0784 
     96 H96        23.2480   -3.7724   -6.9899 H         1 UNK         0.0793 
     97 H97        24.4250   -4.5515   -5.9422 H         1 UNK         0.0793 
     98 H98        22.7764   -4.2841   -5.3781 H         1 UNK         0.0793 
     99 H99        24.6179   -3.5222   -3.6744 H         1 UNK         0.3024 
    100 H100       25.8687   -1.0149   -1.5185 H         1 UNK         0.1171 
    101 H101       24.4640   -2.0747    0.2226 H         1 UNK         0.0786 
    102 H102       23.4713   -1.0571   -0.8064 H         1 UNK         0.0786 
    103 H103       23.4306   -2.8033   -1.0085 H         1 UNK         0.0786 
    104 H104       25.7537   -3.7725   -1.0897 H         1 UNK         0.2977 
    105 H105       25.1796    0.9819   -4.5293 H         1 UNK         0.3127 
    106 H106       24.3946    3.6733   -4.8870 H         1 UNK         0.0770 
    107 H107       22.9190    1.0681   -5.5508 H         1 UNK         0.0814 
    108 H108       22.1678    2.6554   -5.4334 H         1 UNK         0.0814 
    109 H109       22.8835    1.9190   -4.0079 H         1 UNK         0.0814 
    110 H110       25.0363    1.1098   -7.3067 H         1 UNK         0.2983 
    111 H111       24.2729    2.6729   -9.5995 H         1 UNK         0.0947 
    112 H112       25.4119    0.8295  -10.8488 H         1 UNK         0.0806 
    113 H113       24.3475    0.1821   -9.6109 H         1 UNK         0.0806 
    114 H114       26.0902    0.2138   -9.3478 H         1 UNK         0.0806 
    115 H115       27.0520    2.8002   -7.5884 H         1 UNK         0.3000 
    116 H116       29.0565    3.7118   -7.6088 H         1 UNK         0.0850 
    117 H117       29.4914    5.7792   -8.8869 H         1 UNK         0.0810 
    118 H118       27.8662    5.8294   -8.2230 H         1 UNK         0.0810 
    119 H119       28.1132    5.4777   -9.9332 H         1 UNK         0.0810 
    120 H120       28.8767    1.2806   -8.7266 H         1 UNK         0.3040 
    121 H121       30.1114    1.1557  -11.3775 H         1 UNK         0.0766 
    122 H122       29.7670   -1.2916  -11.0769 H         1 UNK         0.0812 
    123 H123       29.3080   -1.0436   -9.3990 H         1 UNK         0.0812 
    124 H124       28.2978   -0.4105  -10.6966 H         1 UNK         0.0812 
    125 H125       31.4172    1.5854   -8.3303 H         1 UNK         0.3205 
    126 H126       33.3919    1.3624   -7.3228 H         1 UNK         0.0754 
    127 H127       35.4187    1.6847   -8.6945 H         1 UNK         0.0769 
    128 H128       34.1270    2.6961   -9.3179 H         1 UNK         0.0769 
    129 H129       34.5613    1.2049  -10.1520 H         1 UNK         0.0769 
    130 H130       31.9102   -1.0555   -7.7476 H         1 UNK         0.2981 
    131 H131       31.9424   -3.2182   -7.3728 H         1 UNK         0.0541 
    132 H132       32.9089   -2.0958  -10.1654 H         1 UNK         0.3459 
    133 H133       33.4071   -3.5909  -10.9188 H         1 UNK         0.3459 
    134 H134       33.7227   -4.3683   -6.1849 H         1 UNK         0.0612 
    135 H135       34.9020   -3.1711   -6.6382 H         1 UNK         0.0612 
    136 H136       31.2867   -1.9271   -5.5304 H         1 UNK         0.0624 
    137 H137       31.3767   -3.4680   -4.7035 H         1 UNK         0.0624 
@<TRIPOS>BOND
     1    1    2 1    
     2    1   72 1    
     3    1   73 1    
     4    1   74 1    
     5    2    3 2    
     6    2    4 am   BACKBONE|DICT|INTERRES
     7    4    5 1    
     8    4   75 1    
     9    5    6 1    
    10    5   35 1    
    11    5   76 1    
    12    6    7 1    
    13    6   77 1    
    14    6   78 1    
    15    7    8 1    
    16    8    9 1    
    17    8   79 1    
    18    8   80 1    
    19    9   10 ar   
    20    9   14 ar   
    21   10   11 ar   
    22   10   81 1    
    23   11   12 ar   
    24   11   71 1    
    25   12   13 ar   
    26   12   82 1    
    27   13   14 ar   
    28   13   15 1    
    29   14   83 1    
    30   15   16 1    
    31   15   84 1    
    32   15   85 1    
    33   16   17 1    
    34   17   18 1    
    35   17   86 1    
    36   17   87 1    
    37   18   19 1    
    38   18   37 1    
    39   18   88 1    
    40   19   20 am   BACKBONE|DICT|INTERRES
    41   19   89 1    
    42   20   21 2    
    43   20   22 1    
    44   22   23 1    
    45   22   24 1    
    46   22   90 1    
    47   23   91 1    
    48   23   92 1    
    49   23   93 1    
    50   24   25 am   BACKBONE|DICT|INTERRES
    51   24   94 1    
    52   25   26 2    
    53   25   27 1    
    54   27   28 1    
    55   27   29 1    
    56   27   95 1    
    57   28   96 1    
    58   28   97 1    
    59   28   98 1    
    60   29   30 am   BACKBONE|DICT|INTERRES
    61   29   99 1    
    62   30   31 2    
    63   30   32 1    
    64   32   33 1    
    65   32   34 1    
    66   32  100 1    
    67   33  101 1    
    68   33  102 1    
    69   33  103 1    
    70   34   35 am   BACKBONE|DICT|INTERRES
    71   34  104 1    
    72   35   36 2    
    73   37   38 2    
    74   37   39 am   BACKBONE|DICT|INTERRES
    75   39   40 1    
    76   39  105 1    
    77   40   41 1    
    78   40   42 1    
    79   40  106 1    
    80   41  107 1    
    81   41  108 1    
    82   41  109 1    
    83   42   43 2    
    84   42   44 am   BACKBONE|DICT|INTERRES
    85   44   45 1    
    86   44  110 1    
    87   45   46 1    
    88   45   47 1    
    89   45  111 1    
    90   46  112 1    
    91   46  113 1    
    92   46  114 1    
    93   47   48 2    
    94   47   49 am   BACKBONE|DICT|INTERRES
    95   49   50 1    
    96   49  115 1    
    97   50   51 1    
    98   50   52 1    
    99   50  116 1    
   100   51  117 1    
   101   51  118 1    
   102   51  119 1    
   103   52   53 2    
   104   52   54 am   BACKBONE|DICT|INTERRES
   105   54   55 1    
   106   54  120 1    
   107   55   56 1    
   108   55   57 1    
   109   55  121 1    
   110   56  122 1    
   111   56  123 1    
   112   56  124 1    
   113   57   58 2    
   114   57   59 am   BACKBONE|DICT|INTERRES
   115   59   60 1    
   116   59  125 1    
   117   60   61 1    
   118   60   62 1    
   119   60  126 1    
   120   61  127 1    
   121   61  128 1    
   122   61  129 1    
   123   62   63 2    
   124   62   64 am   BACKBONE|DICT|INTERRES
   125   64   65 1    
   126   64  130 1    
   127   65   66 1    
   128   65   69 1    
   129   65  131 1    
   130   66   67 am   BACKBONE|DICT|INTERRES
   131   66   68 2    
   132   67  132 1    
   133   67  133 1    
   134   69   70 1    
   135   69  134 1    
   136   69  135 1    
   137   70   71 1    
   138   71  136 1    
   139   71  137 1    
@<TRIPOS>SUBSTRUCTURE
     1 UNK         1 GROUP             0       ****    0 ROOT    
