@<TRIPOS>MOLECULE
3R137
137   139    1
SMALL
USER_CHARGES


@<TRIPOS>ATOM
      1 CA         24.2626   -5.2700   -2.6408 C.3       0 UNK        -0.2020 
      2 C          24.9174   -4.3758   -1.5990 C.2       0 UNK         0.4855 
      3 O          24.5995   -4.4792   -0.4138 O.2       0 UNK        -0.5197 
      4 N          25.8275   -3.4963   -2.0286 N.am      1 UNK        -0.4892 
      5 CA         26.6192   -2.6126   -1.1717 C.3       1 UNK         0.0835 
      6 C6         28.0946   -2.5543   -1.6385 C.3       12 UNK        -0.0855 
      7 S7         28.9267   -4.1437   -1.3177 S.3       12 UNK        -0.2931 
      8 C8         30.6564   -3.7429   -1.7317 C.3       12 UNK         0.0378 
      9 C9         30.9642   -3.7293   -3.2278 C.ar      12 UNK        -0.0802 
     10 C10        31.9429   -2.8581   -3.7127 C.ar      12 UNK        -0.0944 
     11 C11        32.3084   -2.8667   -5.0620 C.ar      12 UNK        -0.0787 
     12 C12        31.6780   -3.7566   -5.9397 C.ar      12 UNK        -0.0862 
     13 C13        30.7040   -4.6452   -5.4675 C.ar      12 UNK        -0.0733 
     14 C14        30.3518   -4.6228   -4.1145 C.ar      12 UNK        -0.0832 
     15 C15        30.0876   -5.6914   -6.3899 C.3       12 UNK         0.0240 
     16 S16        28.9904   -4.9910   -7.6614 S.3       12 UNK        -0.2522 
     17 C17        27.5895   -4.3397   -6.6839 C.3       12 UNK        -0.0967 
     18 CA         26.9694   -3.0901   -7.3656 C.3       5 UNK         0.0660 
     19 N          25.6282   -2.7289   -6.8944 N.am      5 UNK        -0.4015 
     20 C          25.2793   -2.3691   -5.6545 C.2       4 UNK         0.4946 
     21 O          26.0217   -2.4549   -4.6717 O.2       4 UNK        -0.5353 
     22 CA         23.8865   -1.7600   -5.4888 C.3       4 UNK         0.0277 
     23 CB         22.9004   -2.7505   -4.8520 C.3       4 UNK        -0.1981 
     24 N          24.0269   -0.5895   -4.6320 N.am      4 UNK        -0.4209 
     25 C          23.3832    0.5734   -4.7808 C.2       3 UNK         0.4942 
     26 O          22.5585    0.7887   -5.6708 O.2       3 UNK        -0.5208 
     27 CA         23.7393    1.6842   -3.7713 C.3       3 UNK         0.0250 
     28 CB         22.6642    2.7887   -3.6844 C.3       3 UNK        -0.1990 
     29 N          24.0763    1.1669   -2.4382 N.am      3 UNK        -0.4232 
     30 C          23.2832    0.4796   -1.6034 C.2       2 UNK         0.4993 
     31 O          22.1094    0.1891   -1.8407 O.2       2 UNK        -0.5286 
     32 CA         23.9395    0.0098   -0.2927 C.3       2 UNK         0.0209 
     33 CB         22.9019   -0.2828    0.8074 C.3       2 UNK        -0.1931 
     34 N          24.7590   -1.1870   -0.4961 N.am      2 UNK        -0.4546 
     35 C          25.9428   -1.2324   -1.1220 C.2       1 UNK         0.5154 
     36 O          26.4738   -0.2524   -1.6497 O.2       1 UNK        -0.5181 
     37 C          27.9160   -1.8748   -7.3479 C.2       5 UNK         0.5014 
     38 O          28.3101   -1.4096   -8.4165 O.2       5 UNK        -0.5248 
     39 N          28.2369   -1.3649   -6.1513 N.am      6 UNK        -0.4434 
     40 CA         29.2204   -0.3062   -5.9117 C.3       6 UNK         0.0363 
     41 CB         29.3242   -0.0294   -4.4041 C.3       6 UNK        -0.1936 
     42 C          28.9672    0.9944   -6.6919 C.2       6 UNK         0.5081 
     43 O          29.9140    1.5921   -7.2059 O.2       6 UNK        -0.5248 
     44 N          27.6886    1.3778   -6.8077 N.am      7 UNK        -0.4718 
     45 CA         27.2336    2.5467   -7.5654 C.3       7 UNK         0.0273 
     46 CB         25.7582    2.8218   -7.2314 C.3       7 UNK        -0.1935 
     47 C          27.4278    2.4163   -9.0878 C.2       7 UNK         0.5018 
     48 O          27.5873    3.4371   -9.7577 O.2       7 UNK        -0.5186 
     49 N          27.4124    1.1798   -9.6045 N.am      8 UNK        -0.4240 
     50 CA         27.6750    0.8695  -11.0105 C.3       8 UNK         0.0235 
     51 CB         26.8551   -0.3625  -11.4292 C.3       8 UNK        -0.2000 
     52 C          29.1730    0.6355  -11.2543 C.2       8 UNK         0.4941 
     53 O          29.6941    1.0815  -12.2770 O.2       8 UNK        -0.5273 
     54 N          29.8344   -0.0551  -10.3141 N.am      9 UNK        -0.4262 
     55 CA         31.2622   -0.3728  -10.3434 C.3       9 UNK         0.0264 
     56 CB         31.5856   -1.3801   -9.2271 C.3       9 UNK        -0.1955 
     57 C          32.1677    0.8644  -10.2305 C.2       9 UNK         0.5031 
     58 O          33.2182    0.8823  -10.8736 O.2       9 UNK        -0.5390 
     59 N          31.7481    1.8586   -9.4280 N.am      10 UNK        -0.4204 
     60 CA         32.4581    3.1062   -9.1147 C.3       10 UNK         0.0237 
     61 CB         32.5689    4.0107  -10.3607 C.3       10 UNK        -0.1985 
     62 C          33.8147    2.8114   -8.4499 C.2       10 UNK         0.4970 
     63 O          34.8688    3.1000   -9.0196 O.2       10 UNK        -0.4914 
     64 N          33.7370    2.1765   -7.2747 N.am      11 UNK        -0.4285 
     65 CA         34.8518    1.5542   -6.5403 C.3       11 UNK         0.1007 
     66 C          36.0166    2.4999   -6.1235 C.2       11 UNK         0.5703 
     67 N          35.8143    3.8100   -6.0507 N.am      11 UNK        -0.7361 
     68 O          37.1212    2.0318   -5.8578 O.2       11 UNK        -0.4986 
     69 C69        34.3488    0.7592   -5.3035 C.3       12 UNK        -0.0947 
     70 S70        32.8366   -0.2191   -5.6048 S.3       12 UNK        -0.2240 
     71 C71        33.4177   -1.9386   -5.5392 C.3       12 UNK         0.0194 
     72 H72        24.4716   -6.3159   -2.4177 H         1 UNK         0.0906 
     73 H73        23.1819   -5.1313   -2.6335 H         1 UNK         0.0906 
     74 H74        24.6302   -5.0604   -3.6454 H         1 UNK         0.0906 
     75 H75        25.9854   -3.3675   -3.0263 H         1 UNK         0.3140 
     76 H76        26.6196   -2.9869   -0.1450 H         1 UNK         0.1085 
     77 H77        28.1585   -2.3199   -2.7023 H         1 UNK         0.0836 
     78 H78        28.6400   -1.7706   -1.1089 H         1 UNK         0.0836 
     79 H79        30.9153   -2.7853   -1.2770 H         1 UNK         0.0731 
     80 H80        31.3005   -4.4878   -1.2629 H         1 UNK         0.0731 
     81 H81        32.4408   -2.1782   -3.0344 H         1 UNK         0.1312 
     82 H82        31.9626   -3.7798   -6.9828 H         1 UNK         0.1406 
     83 H83        29.6190   -5.3269   -3.7451 H         1 UNK         0.1631 
     84 H84        29.5317   -6.4370   -5.8191 H         1 UNK         0.0717 
     85 H85        30.8915   -6.2342   -6.8892 H         1 UNK         0.0717 
     86 H86        26.8422   -5.1306   -6.6055 H         1 UNK         0.0934 
     87 H87        27.9055   -4.1223   -5.6625 H         1 UNK         0.0934 
     88 H88        26.8212   -3.3422   -8.4175 H         1 UNK         0.0739 
     89 H89        24.9407   -2.6236   -7.6276 H         1 UNK         0.3093 
     90 H90        23.5125   -1.4637   -6.4715 H         1 UNK         0.0818 
     91 H91        21.8867   -2.3495   -4.8595 H         1 UNK         0.0819 
     92 H92        22.8804   -3.6979   -5.3921 H         1 UNK         0.0819 
     93 H93        23.1602   -2.9593   -3.8151 H         1 UNK         0.0819 
     94 H94        24.7297   -0.6762   -3.9090 H         1 UNK         0.3041 
     95 H95        24.6515    2.1474   -4.1486 H         1 UNK         0.0784 
     96 H96        22.5202    3.2715   -4.6518 H         1 UNK         0.0793 
     97 H97        21.6978    2.3900   -3.3743 H         1 UNK         0.0793 
     98 H98        22.9499    3.5661   -2.9759 H         1 UNK         0.0793 
     99 H99        25.0516    1.2502   -2.1704 H         1 UNK         0.3024 
    100 H100       24.5834    0.8169    0.0654 H         1 UNK         0.1171 
    101 H101       22.2499   -1.1155    0.5399 H         1 UNK         0.0786 
    102 H102       22.2659    0.5857    0.9845 H         1 UNK         0.0786 
    103 H103       23.3852   -0.5268    1.7537 H         1 UNK         0.0786 
    104 H104       24.3796   -2.0582   -0.1483 H         1 UNK         0.2977 
    105 H105       27.7895   -1.7760   -5.3380 H         1 UNK         0.3127 
    106 H106       30.1748   -0.7028   -6.2529 H         1 UNK         0.0770 
    107 H107       29.6948   -0.9042   -3.8708 H         1 UNK         0.0814 
    108 H108       28.3619    0.2488   -3.9722 H         1 UNK         0.0814 
    109 H109       30.0234    0.7835   -4.2030 H         1 UNK         0.0814 
    110 H110       26.9814    0.8154   -6.3589 H         1 UNK         0.2983 
    111 H111       27.8241    3.4065   -7.2403 H         1 UNK         0.0947 
    112 H112       25.3843    3.6801   -7.7917 H         1 UNK         0.0806 
    113 H113       25.6288    3.0512   -6.1742 H         1 UNK         0.0806 
    114 H114       25.1199    1.9714   -7.4748 H         1 UNK         0.0806 
    115 H115       27.3455    0.3911   -8.9731 H         1 UNK         0.3000 
    116 H116       27.3603    1.7089  -11.6349 H         1 UNK         0.0850 
    117 H117       27.0183   -0.5976  -12.4819 H         1 UNK         0.0810 
    118 H118       25.7868   -0.1896  -11.2983 H         1 UNK         0.0810 
    119 H119       27.1242   -1.2485  -10.8531 H         1 UNK         0.0810 
    120 H120       29.3006   -0.4504   -9.5409 H         1 UNK         0.3040 
    121 H121       31.4725   -0.8497  -11.3029 H         1 UNK         0.0766 
    122 H122       32.6380   -1.6659   -9.2497 H         1 UNK         0.0812 
    123 H123       30.9974   -2.2925   -9.3297 H         1 UNK         0.0812 
    124 H124       31.3837   -0.9635   -8.2409 H         1 UNK         0.0812 
    125 H125       30.9068    1.6980   -8.8784 H         1 UNK         0.3205 
    126 H126       31.8501    3.6340   -8.3781 H         1 UNK         0.0754 
    127 H127       33.0250    4.9681  -10.1061 H         1 UNK         0.0769 
    128 H128       31.5864    4.2204  -10.7839 H         1 UNK         0.0769 
    129 H129       33.1796    3.5588  -11.1430 H         1 UNK         0.0769 
    130 H130       32.8207    1.9712   -6.9017 H         1 UNK         0.2981 
    131 H131       35.2884    0.8312   -7.2317 H         1 UNK         0.0541 
    132 H132       34.9133    4.1995   -6.2765 H         1 UNK         0.3459 
    133 H133       36.5747    4.4142   -5.7821 H         1 UNK         0.3459 
    134 H134       34.1139    1.4461   -4.4880 H         1 UNK         0.0612 
    135 H135       35.1392    0.1085   -4.9264 H         1 UNK         0.0612 
    136 H136       33.7803   -2.2319   -6.5255 H         1 UNK         0.0624 
    137 H137       34.2639   -2.0237   -4.8564 H         1 UNK         0.0624 
@<TRIPOS>BOND
     1    1    2 1    
     2    1   72 1    
     3    1   73 1    
     4    1   74 1    
     5    2    3 2    
     6    2    4 am   BACKBONE|DICT|INTERRES
     7    4    5 1    
     8    4   75 1    
     9    5    6 1    
    10    5   35 1    
    11    5   76 1    
    12    6    7 1    
    13    6   77 1    
    14    6   78 1    
    15    7    8 1    
    16    8    9 1    
    17    8   79 1    
    18    8   80 1    
    19    9   10 ar   
    20    9   14 ar   
    21   10   11 ar   
    22   10   81 1    
    23   11   12 ar   
    24   11   71 1    
    25   12   13 ar   
    26   12   82 1    
    27   13   14 ar   
    28   13   15 1    
    29   14   83 1    
    30   15   16 1    
    31   15   84 1    
    32   15   85 1    
    33   16   17 1    
    34   17   18 1    
    35   17   86 1    
    36   17   87 1    
    37   18   19 1    
    38   18   37 1    
    39   18   88 1    
    40   19   20 am   BACKBONE|DICT|INTERRES
    41   19   89 1    
    42   20   21 2    
    43   20   22 1    
    44   22   23 1    
    45   22   24 1    
    46   22   90 1    
    47   23   91 1    
    48   23   92 1    
    49   23   93 1    
    50   24   25 am   BACKBONE|DICT|INTERRES
    51   24   94 1    
    52   25   26 2    
    53   25   27 1    
    54   27   28 1    
    55   27   29 1    
    56   27   95 1    
    57   28   96 1    
    58   28   97 1    
    59   28   98 1    
    60   29   30 am   BACKBONE|DICT|INTERRES
    61   29   99 1    
    62   30   31 2    
    63   30   32 1    
    64   32   33 1    
    65   32   34 1    
    66   32  100 1    
    67   33  101 1    
    68   33  102 1    
    69   33  103 1    
    70   34   35 am   BACKBONE|DICT|INTERRES
    71   34  104 1    
    72   35   36 2    
    73   37   38 2    
    74   37   39 am   BACKBONE|DICT|INTERRES
    75   39   40 1    
    76   39  105 1    
    77   40   41 1    
    78   40   42 1    
    79   40  106 1    
    80   41  107 1    
    81   41  108 1    
    82   41  109 1    
    83   42   43 2    
    84   42   44 am   BACKBONE|DICT|INTERRES
    85   44   45 1    
    86   44  110 1    
    87   45   46 1    
    88   45   47 1    
    89   45  111 1    
    90   46  112 1    
    91   46  113 1    
    92   46  114 1    
    93   47   48 2    
    94   47   49 am   BACKBONE|DICT|INTERRES
    95   49   50 1    
    96   49  115 1    
    97   50   51 1    
    98   50   52 1    
    99   50  116 1    
   100   51  117 1    
   101   51  118 1    
   102   51  119 1    
   103   52   53 2    
   104   52   54 am   BACKBONE|DICT|INTERRES
   105   54   55 1    
   106   54  120 1    
   107   55   56 1    
   108   55   57 1    
   109   55  121 1    
   110   56  122 1    
   111   56  123 1    
   112   56  124 1    
   113   57   58 2    
   114   57   59 am   BACKBONE|DICT|INTERRES
   115   59   60 1    
   116   59  125 1    
   117   60   61 1    
   118   60   62 1    
   119   60  126 1    
   120   61  127 1    
   121   61  128 1    
   122   61  129 1    
   123   62   63 2    
   124   62   64 am   BACKBONE|DICT|INTERRES
   125   64   65 1    
   126   64  130 1    
   127   65   66 1    
   128   65   69 1    
   129   65  131 1    
   130   66   67 am   BACKBONE|DICT|INTERRES
   131   66   68 2    
   132   67  132 1    
   133   67  133 1    
   134   69   70 1    
   135   69  134 1    
   136   69  135 1    
   137   70   71 1    
   138   71  136 1    
   139   71  137 1    
@<TRIPOS>SUBSTRUCTURE
     1 UNK         1 GROUP             0       ****    0 ROOT    
