@<TRIPOS>MOLECULE
3R137
137   139    1
SMALL
USER_CHARGES


@<TRIPOS>ATOM
      1 CA         29.9430   -0.6742    1.1562 C.3       0 UNK        -0.2020 
      2 C          29.8389   -1.0015   -0.3254 C.2       0 UNK         0.4855 
      3 O          30.6278   -0.4922   -1.1213 O.2       0 UNK        -0.5197 
      4 N          28.8651   -1.8395   -0.7041 N.am      1 UNK        -0.4892 
      5 CA         28.6048   -2.2997   -2.0740 C.3       1 UNK         0.0835 
      6 C6         27.7415   -3.5905   -2.0830 C.3       12 UNK        -0.0855 
      7 S7         28.6570   -5.0261   -1.4299 S.3       12 UNK        -0.2931 
      8 C8         29.0315   -5.9474   -2.9612 C.3       12 UNK         0.0378 
      9 C9         29.8230   -5.1111   -3.9595 C.ar      12 UNK        -0.0802 
     10 C10        31.1288   -4.7171   -3.6583 C.ar      12 UNK        -0.0944 
     11 C11        31.8541   -3.9291   -4.5533 C.ar      12 UNK        -0.0787 
     12 C12        31.2692   -3.5455   -5.7634 C.ar      12 UNK        -0.0862 
     13 C13        29.9633   -3.9282   -6.0852 C.ar      12 UNK        -0.0733 
     14 C14        29.2501   -4.7254   -5.1773 C.ar      12 UNK        -0.0832 
     15 C15        29.3933   -3.4678   -7.4308 C.3       12 UNK         0.0240 
     16 S16        27.5927   -3.6691   -7.6646 S.3       12 UNK        -0.2522 
     17 C17        26.9501   -2.4083   -6.5175 C.3       12 UNK        -0.0967 
     18 CA         25.4024   -2.3327   -6.5270 C.3       5 UNK         0.0660 
     19 N          24.8985   -1.7268   -5.2936 N.am      5 UNK        -0.4015 
     20 C          23.6117   -1.6381   -4.9304 C.2       4 UNK         0.4946 
     21 O          22.6770   -2.0544   -5.6169 O.2       4 UNK        -0.5353 
     22 CA         23.3010   -1.0154   -3.5594 C.3       4 UNK         0.0277 
     23 CB         23.2326   -2.1161   -2.4869 C.3       4 UNK        -0.1981 
     24 N          24.2929   -0.0173   -3.1469 N.am      4 UNK        -0.4209 
     25 C          24.0320    1.2783   -2.9198 C.2       3 UNK         0.4942 
     26 O          22.9232    1.7912   -3.0782 O.2       3 UNK        -0.5208 
     27 CA         25.1841    2.1610   -2.3982 C.3       3 UNK         0.0250 
     28 CB         25.0776    2.3302   -0.8735 C.3       3 UNK        -0.1990 
     29 N          26.5160    1.6490   -2.7259 N.am      3 UNK        -0.4232 
     30 C          27.0596    1.6739   -3.9496 C.2       2 UNK         0.4993 
     31 O          26.5261    2.2072   -4.9223 O.2       2 UNK        -0.5286 
     32 CA         28.4200    0.9750   -4.1311 C.3       2 UNK         0.0209 
     33 CB         29.5584    2.0071   -4.0962 C.3       2 UNK        -0.1931 
     34 N          28.7284   -0.1090   -3.1880 N.am      2 UNK        -0.4546 
     35 C          27.9763   -1.1883   -2.9402 C.2       1 UNK         0.5154 
     36 O          26.8241   -1.3131   -3.3570 O.2       1 UNK        -0.5181 
     37 C          24.8944   -1.5954   -7.7809 C.2       5 UNK         0.5014 
     38 O          24.9558   -0.3651   -7.8334 O.2       5 UNK        -0.5248 
     39 N          24.4718   -2.3642   -8.7947 N.am      6 UNK        -0.4434 
     40 CA         24.0326   -1.8636  -10.1030 C.3       6 UNK         0.0363 
     41 CB         23.4332   -3.0234  -10.9144 C.3       6 UNK        -0.1936 
     42 C          25.1489   -1.1671  -10.9042 C.2       6 UNK         0.5081 
     43 O          24.8499   -0.3252  -11.7509 O.2       6 UNK        -0.5248 
     44 N          26.4110   -1.5082  -10.6076 N.am      7 UNK        -0.4718 
     45 CA         27.6046   -0.8578  -11.1528 C.3       7 UNK         0.0273 
     46 CB         28.7998   -1.8137  -11.0051 C.3       7 UNK        -0.1935 
     47 C          27.9151    0.5042  -10.4982 C.2       7 UNK         0.5018 
     48 O          28.7981    1.2055  -10.9938 O.2       7 UNK        -0.5186 
     49 N          27.2069    0.8520   -9.4099 N.am      8 UNK        -0.4240 
     50 CA         27.3661    2.0594   -8.5942 C.3       8 UNK         0.0235 
     51 CB         26.9304    3.3158   -9.3832 C.3       8 UNK        -0.2000 
     52 C          28.7770    2.1420   -7.9821 C.2       8 UNK         0.4941 
     53 O          29.2465    1.1461   -7.4263 O.2       8 UNK        -0.5273 
     54 N          29.4410    3.3006   -8.0993 N.am      9 UNK        -0.4262 
     55 CA         30.7671    3.6231   -7.5539 C.3       9 UNK         0.0264 
     56 CB         30.9576    5.1511   -7.5944 C.3       9 UNK        -0.1955 
     57 C          31.9491    2.8620   -8.1988 C.2       9 UNK         0.5031 
     58 O          33.0111    3.4472   -8.4197 O.2       9 UNK        -0.5390 
     59 N          31.7585    1.5666   -8.4685 N.am      10 UNK        -0.4204 
     60 CA         32.7970    0.6232   -8.8789 C.3       10 UNK         0.0237 
     61 CB         32.1385   -0.5768   -9.5785 C.3       10 UNK        -0.1985 
     62 C          33.6422    0.1571   -7.6814 C.2       10 UNK         0.4970 
     63 O          34.8278   -0.1265   -7.8557 O.2       10 UNK        -0.4914 
     64 N          33.0198    0.0856   -6.4964 N.am      11 UNK        -0.4285 
     65 CA         33.6767   -0.2276   -5.2223 C.3       11 UNK         0.1007 
     66 C          34.5165    0.9634   -4.6850 C.2       11 UNK         0.5703 
     67 N          35.5978    0.6884   -3.9686 N.am      11 UNK        -0.7361 
     68 O          34.1774    2.1291   -4.8817 O.2       11 UNK        -0.4986 
     69 C69        32.6433   -0.7328   -4.1768 C.3       12 UNK        -0.0947 
     70 S70        33.3162   -2.0508   -3.1107 S.3       12 UNK        -0.2240 
     71 C71        33.2735   -3.5010   -4.2146 C.3       12 UNK         0.0194 
     72 H72        29.8208    0.3972    1.3128 H         1 UNK         0.0906 
     73 H73        29.1854   -1.1923    1.7439 H         1 UNK         0.0906 
     74 H74        30.9228   -0.9642    1.5348 H         1 UNK         0.0906 
     75 H75        28.2484   -2.2221   -0.0013 H         1 UNK         0.3140 
     76 H76        29.5644   -2.5348   -2.5407 H         1 UNK         0.1085 
     77 H77        26.8354   -3.4518   -1.4903 H         1 UNK         0.0836 
     78 H78        27.3975   -3.8307   -3.0908 H         1 UNK         0.0836 
     79 H79        28.0978   -6.3007   -3.4018 H         1 UNK         0.0731 
     80 H80        29.6055   -6.8393   -2.7063 H         1 UNK         0.0731 
     81 H81        31.5743   -5.0106   -2.7173 H         1 UNK         0.1312 
     82 H82        31.8347   -2.9385   -6.4577 H         1 UNK         0.1406 
     83 H83        28.2447   -5.0475   -5.4079 H         1 UNK         0.1631 
     84 H84        29.8996   -4.0215   -8.2225 H         1 UNK         0.0717 
     85 H85        29.6404   -2.4159   -7.5840 H         1 UNK         0.0717 
     86 H86        27.3006   -2.6847   -5.5239 H         1 UNK         0.0934 
     87 H87        27.4029   -1.4378   -6.7354 H         1 UNK         0.0934 
     88 H88        25.0069   -3.3509   -6.5398 H         1 UNK         0.0739 
     89 H89        25.6081   -1.4125   -4.6367 H         1 UNK         0.3093 
     90 H90        22.3119   -0.5592   -3.6368 H         1 UNK         0.0818 
     91 H91        22.5009   -2.8797   -2.7548 H         1 UNK         0.0819 
     92 H92        24.1944   -2.6147   -2.3580 H         1 UNK         0.0819 
     93 H93        22.9349   -1.7081   -1.5209 H         1 UNK         0.0819 
     94 H94        25.2448   -0.3516   -3.0248 H         1 UNK         0.3041 
     95 H95        25.0743    3.1454   -2.8588 H         1 UNK         0.0784 
     96 H96        24.1067    2.7418   -0.5935 H         1 UNK         0.0793 
     97 H97        25.1902    1.3787   -0.3521 H         1 UNK         0.0793 
     98 H98        25.8378    3.0140   -0.4954 H         1 UNK         0.0793 
     99 H99        27.0305    1.1953   -1.9852 H         1 UNK         0.3024 
    100 H100       28.3933    0.5221   -5.1229 H         1 UNK         0.1171 
    101 H101       29.7301    2.3842   -3.0874 H         1 UNK         0.0786 
    102 H102       29.3270    2.8651   -4.7283 H         1 UNK         0.0786 
    103 H103       30.4920    1.5798   -4.4615 H         1 UNK         0.0786 
    104 H104       29.6256   -0.0652   -2.7104 H         1 UNK         0.2977 
    105 H105       24.4712   -3.3675   -8.6740 H         1 UNK         0.3127 
    106 H106       23.2481   -1.1239   -9.9293 H         1 UNK         0.0770 
    107 H107       24.1682   -3.8067  -11.1043 H         1 UNK         0.0814 
    108 H108       23.0715   -2.6751  -11.8831 H         1 UNK         0.0814 
    109 H109       22.5852   -3.4738  -10.3982 H         1 UNK         0.0814 
    110 H110       26.5617   -2.2190   -9.9054 H         1 UNK         0.2983 
    111 H111       27.4439   -0.6750  -12.2177 H         1 UNK         0.0947 
    112 H112       28.5950   -2.7839  -11.4582 H         1 UNK         0.0806 
    113 H113       29.0576   -1.9769   -9.9592 H         1 UNK         0.0806 
    114 H114       29.6837   -1.4092  -11.4994 H         1 UNK         0.0806 
    115 H115       26.5019    0.2072   -9.0698 H         1 UNK         0.3000 
    116 H116       26.6830    1.9456   -7.7508 H         1 UNK         0.0850 
    117 H117       26.9116    4.1997   -8.7443 H         1 UNK         0.0810 
    118 H118       25.9218    3.1936   -9.7787 H         1 UNK         0.0810 
    119 H119       27.5890    3.5238  -10.2274 H         1 UNK         0.0810 
    120 H120       28.9899    4.0398   -8.6185 H         1 UNK         0.3040 
    121 H121       30.7687    3.3266   -6.5045 H         1 UNK         0.0766 
    122 H122       30.9881    5.5250   -8.6185 H         1 UNK         0.0812 
    123 H123       30.1528    5.6672   -7.0704 H         1 UNK         0.0812 
    124 H124       31.8905    5.4452   -7.1113 H         1 UNK         0.0812 
    125 H125       30.8413    1.1860   -8.2376 H         1 UNK         0.3205 
    126 H126       33.4624    1.1159   -9.5910 H         1 UNK         0.0754 
    127 H127       32.8878   -1.2984   -9.9068 H         1 UNK         0.0769 
    128 H128       31.5861   -0.2579  -10.4625 H         1 UNK         0.0769 
    129 H129       31.4442   -1.1004   -8.9202 H         1 UNK         0.0769 
    130 H130       32.0558    0.3747   -6.4407 H         1 UNK         0.2981 
    131 H131       34.3767   -1.0364   -5.4392 H         1 UNK         0.0541 
    132 H132       35.8628   -0.2649   -3.7748 H         1 UNK         0.3459 
    133 H133       36.1481    1.4477   -3.5994 H         1 UNK         0.3459 
    134 H134       31.7436   -1.1145   -4.6585 H         1 UNK         0.0612 
    135 H135       32.2912    0.0787   -3.5370 H         1 UNK         0.0612 
    136 H136       33.8377   -3.2916   -5.1240 H         1 UNK         0.0624 
    137 H137       33.7923   -4.3254   -3.7233 H         1 UNK         0.0624 
@<TRIPOS>BOND
     1    1    2 1    
     2    1   72 1    
     3    1   73 1    
     4    1   74 1    
     5    2    3 2    
     6    2    4 am   BACKBONE|DICT|INTERRES
     7    4    5 1    
     8    4   75 1    
     9    5    6 1    
    10    5   35 1    
    11    5   76 1    
    12    6    7 1    
    13    6   77 1    
    14    6   78 1    
    15    7    8 1    
    16    8    9 1    
    17    8   79 1    
    18    8   80 1    
    19    9   10 ar   
    20    9   14 ar   
    21   10   11 ar   
    22   10   81 1    
    23   11   12 ar   
    24   11   71 1    
    25   12   13 ar   
    26   12   82 1    
    27   13   14 ar   
    28   13   15 1    
    29   14   83 1    
    30   15   16 1    
    31   15   84 1    
    32   15   85 1    
    33   16   17 1    
    34   17   18 1    
    35   17   86 1    
    36   17   87 1    
    37   18   19 1    
    38   18   37 1    
    39   18   88 1    
    40   19   20 am   BACKBONE|DICT|INTERRES
    41   19   89 1    
    42   20   21 2    
    43   20   22 1    
    44   22   23 1    
    45   22   24 1    
    46   22   90 1    
    47   23   91 1    
    48   23   92 1    
    49   23   93 1    
    50   24   25 am   BACKBONE|DICT|INTERRES
    51   24   94 1    
    52   25   26 2    
    53   25   27 1    
    54   27   28 1    
    55   27   29 1    
    56   27   95 1    
    57   28   96 1    
    58   28   97 1    
    59   28   98 1    
    60   29   30 am   BACKBONE|DICT|INTERRES
    61   29   99 1    
    62   30   31 2    
    63   30   32 1    
    64   32   33 1    
    65   32   34 1    
    66   32  100 1    
    67   33  101 1    
    68   33  102 1    
    69   33  103 1    
    70   34   35 am   BACKBONE|DICT|INTERRES
    71   34  104 1    
    72   35   36 2    
    73   37   38 2    
    74   37   39 am   BACKBONE|DICT|INTERRES
    75   39   40 1    
    76   39  105 1    
    77   40   41 1    
    78   40   42 1    
    79   40  106 1    
    80   41  107 1    
    81   41  108 1    
    82   41  109 1    
    83   42   43 2    
    84   42   44 am   BACKBONE|DICT|INTERRES
    85   44   45 1    
    86   44  110 1    
    87   45   46 1    
    88   45   47 1    
    89   45  111 1    
    90   46  112 1    
    91   46  113 1    
    92   46  114 1    
    93   47   48 2    
    94   47   49 am   BACKBONE|DICT|INTERRES
    95   49   50 1    
    96   49  115 1    
    97   50   51 1    
    98   50   52 1    
    99   50  116 1    
   100   51  117 1    
   101   51  118 1    
   102   51  119 1    
   103   52   53 2    
   104   52   54 am   BACKBONE|DICT|INTERRES
   105   54   55 1    
   106   54  120 1    
   107   55   56 1    
   108   55   57 1    
   109   55  121 1    
   110   56  122 1    
   111   56  123 1    
   112   56  124 1    
   113   57   58 2    
   114   57   59 am   BACKBONE|DICT|INTERRES
   115   59   60 1    
   116   59  125 1    
   117   60   61 1    
   118   60   62 1    
   119   60  126 1    
   120   61  127 1    
   121   61  128 1    
   122   61  129 1    
   123   62   63 2    
   124   62   64 am   BACKBONE|DICT|INTERRES
   125   64   65 1    
   126   64  130 1    
   127   65   66 1    
   128   65   69 1    
   129   65  131 1    
   130   66   67 am   BACKBONE|DICT|INTERRES
   131   66   68 2    
   132   67  132 1    
   133   67  133 1    
   134   69   70 1    
   135   69  134 1    
   136   69  135 1    
   137   70   71 1    
   138   71  136 1    
   139   71  137 1    
@<TRIPOS>SUBSTRUCTURE
     1 UNK         1 GROUP             0       ****    0 ROOT    
