@<TRIPOS>MOLECULE
3R137
137   139    1
SMALL
USER_CHARGES


@<TRIPOS>ATOM
      1 CA         30.7205    1.3239   -2.7932 C.3       0 UNK        -0.2020 
      2 C          30.1199   -0.0621   -2.9600 C.2       0 UNK         0.4855 
      3 O          29.6790   -0.4080   -4.0536 O.2       0 UNK        -0.5197 
      4 N          30.0968   -0.8479   -1.8766 N.am      1 UNK        -0.4892 
      5 CA         29.3890   -2.1279   -1.7959 C.3       1 UNK         0.0835 
      6 C6         30.0142   -3.0357   -0.7049 C.3       12 UNK        -0.0855 
      7 S7         29.4167   -4.7621   -0.7662 S.3       12 UNK        -0.2931 
      8 C8         30.7566   -5.6022   -1.6726 C.3       12 UNK         0.0378 
      9 C9         30.8923   -5.0652   -3.0890 C.ar      12 UNK        -0.0802 
     10 C10        31.9911   -4.2763   -3.4431 C.ar      12 UNK        -0.0944 
     11 C11        32.0896   -3.7274   -4.7268 C.ar      12 UNK        -0.0787 
     12 C12        31.0851   -3.9952   -5.6613 C.ar      12 UNK        -0.0862 
     13 C13        29.9883   -4.7933   -5.3235 C.ar      12 UNK        -0.0733 
     14 C14        29.9022   -5.3344   -4.0383 C.ar      12 UNK        -0.0832 
     15 C15        28.8881   -5.0567   -6.3421 C.3       12 UNK         0.0240 
     16 S16        27.3430   -4.2001   -5.9010 S.3       12 UNK        -0.2522 
     17 C17        27.8540   -2.4511   -5.9794 C.3       12 UNK        -0.0967 
     18 CA         26.9917   -1.6140   -6.9513 C.3       5 UNK         0.0660 
     19 N          25.5656   -1.6411   -6.6260 N.am      5 UNK        -0.4015 
     20 C          24.5808   -1.3569   -7.4891 C.2       4 UNK         0.4946 
     21 O          24.7634   -1.1163   -8.6826 O.2       4 UNK        -0.5353 
     22 CA         23.1453   -1.3262   -6.9324 C.3       4 UNK         0.0277 
     23 CB         22.4700   -2.6947   -7.1176 C.3       4 UNK        -0.1981 
     24 N          23.0775   -0.9399   -5.5203 N.am      4 UNK        -0.4209 
     25 C          23.3599    0.2848   -5.0530 C.2       3 UNK         0.4942 
     26 O          23.6575    1.2400   -5.7697 O.2       3 UNK        -0.5208 
     27 CA         23.3683    0.4534   -3.5212 C.3       3 UNK         0.0250 
     28 CB         21.9535    0.7567   -3.0031 C.3       3 UNK        -0.1990 
     29 N          23.9247   -0.6995   -2.7966 N.am      3 UNK        -0.4232 
     30 C          25.1574   -1.1898   -2.9891 C.2       2 UNK         0.4993 
     31 O          25.9368   -0.7371   -3.8288 O.2       2 UNK        -0.5286 
     32 CA         25.5611   -2.4247   -2.1652 C.3       2 UNK         0.0209 
     33 CB         24.8819   -3.6867   -2.7239 C.3       2 UNK        -0.1931 
     34 N          27.0129   -2.6283   -2.1847 N.am      2 UNK        -0.4546 
     35 C          27.8924   -1.8534   -1.5371 C.2       1 UNK         0.5154 
     36 O          27.5640   -0.9633   -0.7461 O.2       1 UNK        -0.5181 
     37 C          27.4828   -0.1592   -6.9898 C.2       5 UNK         0.5014 
     38 O          28.0926    0.2425   -7.9765 O.2       5 UNK        -0.5248 
     39 N          27.1590    0.6206   -5.9480 N.am      6 UNK        -0.4434 
     40 CA         27.5189    2.0341   -5.7995 C.3       6 UNK         0.0363 
     41 CB         27.0170    2.5397   -4.4386 C.3       6 UNK        -0.1936 
     42 C          27.0032    2.9343   -6.9389 C.2       6 UNK         0.5081 
     43 O          27.6487    3.9299   -7.2657 O.2       6 UNK        -0.5248 
     44 N          25.8682    2.5555   -7.5395 N.am      7 UNK        -0.4718 
     45 CA         25.2847    3.1911   -8.7213 C.3       7 UNK         0.0273 
     46 CB         23.7976    2.8041   -8.7935 C.3       7 UNK        -0.1935 
     47 C          25.9930    2.8409  -10.0476 C.2       7 UNK         0.5018 
     48 O          25.6675    3.4591  -11.0629 O.2       7 UNK        -0.5186 
     49 N          26.9076    1.8612  -10.0479 N.am      8 UNK        -0.4240 
     50 CA         27.5763    1.3389  -11.2379 C.3       8 UNK         0.0235 
     51 CB         26.7915    0.1195  -11.7681 C.3       8 UNK        -0.2000 
     52 C          29.0495    1.0522  -10.9093 C.2       8 UNK         0.4941 
     53 O          29.8254    1.9980  -10.7550 O.2       8 UNK        -0.5273 
     54 N          29.4214   -0.2323  -10.8130 N.am      9 UNK        -0.4262 
     55 CA         30.7653   -0.7263  -10.4962 C.3       9 UNK         0.0264 
     56 CB         30.8657   -2.1987  -10.9385 C.3       9 UNK        -0.1955 
     57 C          31.1320   -0.5324   -9.0096 C.2       9 UNK         0.5031 
     58 O          31.3149   -1.5116   -8.2830 O.2       9 UNK        -0.5390 
     59 N          31.2159    0.7342   -8.5899 N.am      10 UNK        -0.4204 
     60 CA         31.5649    1.1697   -7.2385 C.3       10 UNK         0.0237 
     61 CB         31.2466    2.6699   -7.1174 C.3       10 UNK        -0.1985 
     62 C          33.0416    0.9049   -6.8929 C.2       10 UNK         0.4970 
     63 O          33.8701    0.7056   -7.7853 O.2       10 UNK        -0.4914 
     64 N          33.3441    0.9617   -5.5951 N.am      11 UNK        -0.4285 
     65 CA         34.6773    0.7857   -5.0097 C.3       11 UNK         0.1007 
     66 C          34.8449    1.6432   -3.7267 C.2       11 UNK         0.5703 
     67 N          36.0557    1.7374   -3.1938 N.am      11 UNK        -0.7361 
     68 O          33.8947    2.2305   -3.2117 O.2       11 UNK        -0.4986 
     69 C69        35.0392   -0.7120   -4.8011 C.3       12 UNK        -0.0947 
     70 S70        33.7786   -1.6539   -3.8704 S.3       12 UNK        -0.2240 
     71 C71        33.2812   -2.8678   -5.1360 C.3       12 UNK         0.0194 
     72 H72        31.5462    1.3158   -2.0817 H         1 UNK         0.0906 
     73 H73        31.0958    1.6980   -3.7441 H         1 UNK         0.0906 
     74 H74        29.9618    2.0193   -2.4352 H         1 UNK         0.0906 
     75 H75        30.4392   -0.4854   -0.9983 H         1 UNK         0.3140 
     76 H76        29.4883   -2.6272   -2.7626 H         1 UNK         0.1085 
     77 H77        29.8161   -2.6353    0.2914 H         1 UNK         0.0836 
     78 H78        31.1006   -3.0432   -0.8072 H         1 UNK         0.0836 
     79 H79        30.5443   -6.6716   -1.7108 H         1 UNK         0.0731 
     80 H80        31.6916   -5.4947   -1.1202 H         1 UNK         0.0731 
     81 H81        32.7626   -4.0745   -2.7129 H         1 UNK         0.1312 
     82 H82        31.1537   -3.5742   -6.6554 H         1 UNK         0.1406 
     83 H83        29.0481   -5.9407   -3.7673 H         1 UNK         0.1631 
     84 H84        28.6961   -6.1290   -6.3973 H         1 UNK         0.0717 
     85 H85        29.1971   -4.7472   -7.3420 H         1 UNK         0.0717 
     86 H86        27.8156   -2.0478   -4.9677 H         1 UNK         0.0934 
     87 H87        28.9013   -2.3842   -6.2785 H         1 UNK         0.0934 
     88 H88        27.1223   -2.0317   -7.9523 H         1 UNK         0.0739 
     89 H89        25.3435   -1.7588   -5.6473 H         1 UNK         0.3093 
     90 H90        22.5865   -0.5869   -7.5107 H         1 UNK         0.0818 
     91 H91        22.4819   -2.9955   -8.1663 H         1 UNK         0.0819 
     92 H92        22.9758   -3.4765   -6.5494 H         1 UNK         0.0819 
     93 H93        21.4268   -2.6694   -6.8022 H         1 UNK         0.0819 
     94 H94        22.8334   -1.6615   -4.8578 H         1 UNK         0.3041 
     95 H95        24.0028    1.3129   -3.2956 H         1 UNK         0.0784 
     96 H96        21.5279    1.6210   -3.5155 H         1 UNK         0.0793 
     97 H97        21.2748   -0.0824   -3.1608 H         1 UNK         0.0793 
     98 H98        21.9617    0.9874   -1.9376 H         1 UNK         0.0793 
     99 H99        23.3300   -1.1267   -2.1005 H         1 UNK         0.3024 
    100 H100       25.2439   -2.2712   -1.1312 H         1 UNK         0.1171 
    101 H101       25.1659   -4.5730   -2.1559 H         1 UNK         0.0786 
    102 H102       23.7954   -3.6084   -2.6715 H         1 UNK         0.0786 
    103 H103       25.1461   -3.8610   -3.7676 H         1 UNK         0.0786 
    104 H104       27.3600   -3.3331   -2.8188 H         1 UNK         0.2977 
    105 H105       26.6800    0.1881   -5.1575 H         1 UNK         0.3127 
    106 H106       28.6086    2.0867   -5.8016 H         1 UNK         0.0770 
    107 H107       25.9290    2.5033   -4.3755 H         1 UNK         0.0814 
    108 H108       27.3218    3.5731   -4.2690 H         1 UNK         0.0814 
    109 H109       27.4202    1.9416   -3.6208 H         1 UNK         0.0814 
    110 H110       25.3682    1.7619   -7.1565 H         1 UNK         0.2983 
    111 H111       25.3511    4.2743   -8.5984 H         1 UNK         0.0947 
    112 H112       23.6689    1.7266   -8.9064 H         1 UNK         0.0806 
    113 H113       23.3053    3.2836   -9.6407 H         1 UNK         0.0806 
    114 H114       23.2636    3.1117   -7.8941 H         1 UNK         0.0806 
    115 H115       27.1793    1.4239   -9.1695 H         1 UNK         0.3000 
    116 H116       27.5895    2.0999  -12.0212 H         1 UNK         0.0850 
    117 H117       27.2881   -0.3317  -12.6284 H         1 UNK         0.0810 
    118 H118       25.7947    0.4144  -12.0966 H         1 UNK         0.0810 
    119 H119       26.6653   -0.6498  -11.0047 H         1 UNK         0.0810 
    120 H120       28.7025   -0.9343  -10.9065 H         1 UNK         0.3040 
    121 H121       31.4881   -0.1550  -11.0826 H         1 UNK         0.0766 
    122 H122       30.6749   -2.3076  -12.0062 H         1 UNK         0.0812 
    123 H123       30.1560   -2.8306  -10.4028 H         1 UNK         0.0812 
    124 H124       31.8636   -2.5956  -10.7473 H         1 UNK         0.0812 
    125 H125       30.9790    1.4565   -9.2634 H         1 UNK         0.3205 
    126 H126       30.9370    0.6138   -6.5377 H         1 UNK         0.0754 
    127 H127       31.3675    3.0204   -6.0918 H         1 UNK         0.0769 
    128 H128       30.2193    2.8825   -7.4130 H         1 UNK         0.0769 
    129 H129       31.9018    3.2717   -7.7489 H         1 UNK         0.0769 
    130 H130       32.6275    1.1854   -4.9201 H         1 UNK         0.2981 
    131 H131       35.3967    1.2053   -5.7156 H         1 UNK         0.0541 
    132 H132       36.8469    1.2673   -3.6050 H         1 UNK         0.3459 
    133 H133       36.1799    2.2924   -2.3616 H         1 UNK         0.3459 
    134 H134       35.1881   -1.1779   -5.7761 H         1 UNK         0.0612 
    135 H135       35.9958   -0.8178   -4.2873 H         1 UNK         0.0612 
    136 H136       34.1269   -3.5198   -5.3571 H         1 UNK         0.0624 
    137 H137       33.0517   -2.3258   -6.0554 H         1 UNK         0.0624 
@<TRIPOS>BOND
     1    1    2 1    
     2    1   72 1    
     3    1   73 1    
     4    1   74 1    
     5    2    3 2    
     6    2    4 am   BACKBONE|DICT|INTERRES
     7    4    5 1    
     8    4   75 1    
     9    5    6 1    
    10    5   35 1    
    11    5   76 1    
    12    6    7 1    
    13    6   77 1    
    14    6   78 1    
    15    7    8 1    
    16    8    9 1    
    17    8   79 1    
    18    8   80 1    
    19    9   10 ar   
    20    9   14 ar   
    21   10   11 ar   
    22   10   81 1    
    23   11   12 ar   
    24   11   71 1    
    25   12   13 ar   
    26   12   82 1    
    27   13   14 ar   
    28   13   15 1    
    29   14   83 1    
    30   15   16 1    
    31   15   84 1    
    32   15   85 1    
    33   16   17 1    
    34   17   18 1    
    35   17   86 1    
    36   17   87 1    
    37   18   19 1    
    38   18   37 1    
    39   18   88 1    
    40   19   20 am   BACKBONE|DICT|INTERRES
    41   19   89 1    
    42   20   21 2    
    43   20   22 1    
    44   22   23 1    
    45   22   24 1    
    46   22   90 1    
    47   23   91 1    
    48   23   92 1    
    49   23   93 1    
    50   24   25 am   BACKBONE|DICT|INTERRES
    51   24   94 1    
    52   25   26 2    
    53   25   27 1    
    54   27   28 1    
    55   27   29 1    
    56   27   95 1    
    57   28   96 1    
    58   28   97 1    
    59   28   98 1    
    60   29   30 am   BACKBONE|DICT|INTERRES
    61   29   99 1    
    62   30   31 2    
    63   30   32 1    
    64   32   33 1    
    65   32   34 1    
    66   32  100 1    
    67   33  101 1    
    68   33  102 1    
    69   33  103 1    
    70   34   35 am   BACKBONE|DICT|INTERRES
    71   34  104 1    
    72   35   36 2    
    73   37   38 2    
    74   37   39 am   BACKBONE|DICT|INTERRES
    75   39   40 1    
    76   39  105 1    
    77   40   41 1    
    78   40   42 1    
    79   40  106 1    
    80   41  107 1    
    81   41  108 1    
    82   41  109 1    
    83   42   43 2    
    84   42   44 am   BACKBONE|DICT|INTERRES
    85   44   45 1    
    86   44  110 1    
    87   45   46 1    
    88   45   47 1    
    89   45  111 1    
    90   46  112 1    
    91   46  113 1    
    92   46  114 1    
    93   47   48 2    
    94   47   49 am   BACKBONE|DICT|INTERRES
    95   49   50 1    
    96   49  115 1    
    97   50   51 1    
    98   50   52 1    
    99   50  116 1    
   100   51  117 1    
   101   51  118 1    
   102   51  119 1    
   103   52   53 2    
   104   52   54 am   BACKBONE|DICT|INTERRES
   105   54   55 1    
   106   54  120 1    
   107   55   56 1    
   108   55   57 1    
   109   55  121 1    
   110   56  122 1    
   111   56  123 1    
   112   56  124 1    
   113   57   58 2    
   114   57   59 am   BACKBONE|DICT|INTERRES
   115   59   60 1    
   116   59  125 1    
   117   60   61 1    
   118   60   62 1    
   119   60  126 1    
   120   61  127 1    
   121   61  128 1    
   122   61  129 1    
   123   62   63 2    
   124   62   64 am   BACKBONE|DICT|INTERRES
   125   64   65 1    
   126   64  130 1    
   127   65   66 1    
   128   65   69 1    
   129   65  131 1    
   130   66   67 am   BACKBONE|DICT|INTERRES
   131   66   68 2    
   132   67  132 1    
   133   67  133 1    
   134   69   70 1    
   135   69  134 1    
   136   69  135 1    
   137   70   71 1    
   138   71  136 1    
   139   71  137 1    
@<TRIPOS>SUBSTRUCTURE
     1 UNK         1 GROUP             0       ****    0 ROOT    
