@<TRIPOS>MOLECULE
3R137
137   139    1
SMALL
USER_CHARGES


@<TRIPOS>ATOM
      1 CA         28.1144   -5.8193    0.9063 C.3       0 UNK        -0.2020 
      2 C          27.9805   -4.3042    0.9381 C.2       0 UNK         0.4855 
      3 O          27.3610   -3.7630    1.8540 O.2       0 UNK        -0.5197 
      4 N          28.5602   -3.6172   -0.0548 N.am      1 UNK        -0.4892 
      5 CA         28.5328   -2.1557   -0.1972 C.3       1 UNK         0.0835 
      6 C6         29.5486   -1.6535   -1.2522 C.3       12 UNK        -0.0855 
      7 S7         31.2898   -2.0456   -0.8541 S.3       12 UNK        -0.2931 
      8 C8         31.5896   -3.6520   -1.6723 C.3       12 UNK         0.0378 
      9 C9         31.1292   -3.6774   -3.1234 C.ar      12 UNK        -0.0802 
     10 C10        31.8262   -2.9589   -4.0980 C.ar      12 UNK        -0.0944 
     11 C11        31.3926   -2.9512   -5.4321 C.ar      12 UNK        -0.0787 
     12 C12        30.2530   -3.6878   -5.7751 C.ar      12 UNK        -0.0862 
     13 C13        29.5530   -4.4191   -4.8107 C.ar      12 UNK        -0.0733 
     14 C14        29.9996   -4.4136   -3.4885 C.ar      12 UNK        -0.0832 
     15 C15        28.3212   -5.2293   -5.1844 C.3       12 UNK         0.0240 
     16 S16        26.8349   -4.1833   -5.2944 S.3       12 UNK        -0.2522 
     17 C17        26.7354   -3.8841   -7.0911 C.3       12 UNK        -0.0967 
     18 CA         26.4798   -2.4157   -7.4995 C.3       5 UNK         0.0660 
     19 N          25.2321   -1.8640   -6.9655 N.am      5 UNK        -0.4015 
     20 C          24.6100   -0.8068   -7.5065 C.2       4 UNK         0.4946 
     21 O          25.0563   -0.1766   -8.4669 O.2       4 UNK        -0.5353 
     22 CA         23.2903   -0.3653   -6.8556 C.3       4 UNK         0.0277 
     23 CB         22.2171   -1.4635   -6.9526 C.3       4 UNK        -0.1981 
     24 N          23.4770    0.0284   -5.4597 N.am      4 UNK        -0.4209 
     25 C          24.1580    1.1131   -5.0640 C.2       3 UNK         0.4942 
     26 O          24.6383    1.9393   -5.8370 O.2       3 UNK        -0.5208 
     27 CA         24.3418    1.3247   -3.5517 C.3       3 UNK         0.0250 
     28 CB         23.2949    2.3176   -3.0205 C.3       3 UNK        -0.1990 
     29 N          24.3032    0.1040   -2.7391 N.am      3 UNK        -0.4232 
     30 C          25.1393   -0.9358   -2.8600 C.2       2 UNK         0.4993 
     31 O          25.9631   -1.0602   -3.7700 O.2       2 UNK        -0.5286 
     32 CA         25.0187   -2.0311   -1.7888 C.3       2 UNK         0.0209 
     33 CB         24.2977   -3.2679   -2.3477 C.3       2 UNK        -0.1931 
     34 N          26.3378   -2.4166   -1.2866 N.am      2 UNK        -0.4546 
     35 C          27.1252   -1.6251   -0.5417 C.2       1 UNK         0.5154 
     36 O          26.7811   -0.5164   -0.1279 O.2       1 UNK        -0.5181 
     37 C          27.6900   -1.4914   -7.2670 C.2       5 UNK         0.5014 
     38 O          28.5683   -1.4527   -8.1283 O.2       5 UNK        -0.5248 
     39 N          27.6823   -0.7215   -6.1669 N.am      6 UNK        -0.4434 
     40 CA         28.6745    0.3178   -5.8742 C.3       6 UNK         0.0363 
     41 CB         28.6111    0.6779   -4.3823 C.3       6 UNK        -0.1936 
     42 C          28.5469    1.5821   -6.7494 C.2       6 UNK         0.5081 
     43 O          29.4432    2.4277   -6.6971 O.2       6 UNK        -0.5248 
     44 N          27.4611    1.7020   -7.5272 N.am      7 UNK        -0.4718 
     45 CA         27.3075    2.7039   -8.5822 C.3       7 UNK         0.0273 
     46 CB         25.8854    3.2852   -8.5527 C.3       7 UNK        -0.1935 
     47 C          27.6170    2.1012   -9.9609 C.2       7 UNK         0.5018 
     48 O          28.2435    2.7790  -10.7762 O.2       7 UNK        -0.5186 
     49 N          27.1752    0.8553  -10.2066 N.am      8 UNK        -0.4240 
     50 CA         27.3914    0.1195  -11.4597 C.3       8 UNK         0.0235 
     51 CB         26.6063   -1.2012  -11.4348 C.3       8 UNK        -0.2000 
     52 C          28.8777   -0.1391  -11.7627 C.2       8 UNK         0.4941 
     53 O          29.3055    0.0590  -12.9009 O.2       8 UNK        -0.5273 
     54 N          29.6364   -0.5336  -10.7349 N.am      9 UNK        -0.4262 
     55 CA         31.0948   -0.4974  -10.7070 C.3       9 UNK         0.0264 
     56 CB         31.6316   -1.8751  -10.2891 C.3       9 UNK        -0.1955 
     57 C          31.4555    0.5756   -9.6774 C.2       9 UNK         0.5031 
     58 O          30.8706    0.5713   -8.5964 O.2       9 UNK        -0.5390 
     59 N          32.3691    1.4907  -10.0214 N.am      10 UNK        -0.4204 
     60 CA         32.6436    2.7344   -9.2868 C.3       10 UNK         0.0237 
     61 CB         33.3851    3.7050  -10.2269 C.3       10 UNK        -0.1985 
     62 C          33.3625    2.5589   -7.9289 C.2       10 UNK         0.4970 
     63 O          34.3900    3.1985   -7.6929 O.2       10 UNK        -0.4914 
     64 N          32.8099    1.7130   -7.0553 N.am      11 UNK        -0.4285 
     65 CA         33.2474    1.5317   -5.6646 C.3       11 UNK         0.1007 
     66 C          32.7561    2.6612   -4.7177 C.2       11 UNK         0.5703 
     67 N          31.6342    3.3172   -4.9923 N.am      11 UNK        -0.7361 
     68 O          33.4129    2.9545   -3.7216 O.2       11 UNK        -0.4986 
     69 C69        32.8602    0.1417   -5.1015 C.3       12 UNK        -0.0947 
     70 S70        33.5921   -1.2316   -6.0550 S.3       12 UNK        -0.2240 
     71 C71        32.1065   -2.1758   -6.5436 C.3       12 UNK         0.0194 
     72 H72        28.6072   -6.1710    1.8123 H         1 UNK         0.0906 
     73 H73        27.1290   -6.2813    0.8538 H         1 UNK         0.0906 
     74 H74        28.6955   -6.1621    0.0505 H         1 UNK         0.0906 
     75 H75        29.0799   -4.1114   -0.7619 H         1 UNK         0.3140 
     76 H76        28.8060   -1.7244    0.7687 H         1 UNK         0.1085 
     77 H77        29.4923   -0.5653   -1.3262 H         1 UNK         0.0836 
     78 H78        29.2893   -2.0195   -2.2457 H         1 UNK         0.0836 
     79 H79        32.6585   -3.8670   -1.6340 H         1 UNK         0.0731 
     80 H80        31.1083   -4.4437   -1.0973 H         1 UNK         0.0731 
     81 H81        32.6998   -2.4016   -3.7945 H         1 UNK         0.1312 
     82 H82        29.9082   -3.6880   -6.8001 H         1 UNK         0.1406 
     83 H83        29.4605   -4.9835   -2.7454 H         1 UNK         0.1631 
     84 H84        28.1384   -5.9992   -4.4333 H         1 UNK         0.0717 
     85 H85        28.4911   -5.7676   -6.1177 H         1 UNK         0.0717 
     86 H86        27.6382   -4.2461   -7.5857 H         1 UNK         0.0934 
     87 H87        25.9298   -4.5093   -7.4793 H         1 UNK         0.0934 
     88 H88        26.3485   -2.4455   -8.5823 H         1 UNK         0.0739 
     89 H89        24.8575   -2.3055   -6.1384 H         1 UNK         0.3093 
     90 H90        22.9290    0.5059   -7.4070 H         1 UNK         0.0818 
     91 H91        21.2520   -1.1030   -6.5961 H         1 UNK         0.0819 
     92 H92        22.0783   -1.7816   -7.9870 H         1 UNK         0.0819 
     93 H93        22.4772   -2.3486   -6.3711 H         1 UNK         0.0819 
     94 H94        23.1117   -0.5893   -4.7503 H         1 UNK         0.3041 
     95 H95        25.3296    1.7691   -3.4137 H         1 UNK         0.0784 
     96 H96        23.3173    3.2497   -3.5875 H         1 UNK         0.0793 
     97 H97        22.2834    1.9161   -3.0942 H         1 UNK         0.0793 
     98 H98        23.4816    2.5731   -1.9772 H         1 UNK         0.0793 
     99 H99        23.6477    0.1073   -1.9706 H         1 UNK         0.3024 
    100 H100       24.4396   -1.6461   -0.9463 H         1 UNK         0.1171 
    101 H101       23.2992   -3.0113   -2.7037 H         1 UNK         0.0786 
    102 H102       24.1805   -4.0373   -1.5843 H         1 UNK         0.0786 
    103 H103       24.8385   -3.7077   -3.1853 H         1 UNK         0.0786 
    104 H104       26.7085   -3.2984   -1.6073 H         1 UNK         0.2977 
    105 H105       26.9499   -0.8550   -5.4730 H         1 UNK         0.3127 
    106 H106       29.6596   -0.1040   -6.0776 H         1 UNK         0.0770 
    107 H107       27.6569    1.1359   -4.1211 H         1 UNK         0.0814 
    108 H108       29.3988    1.3833   -4.1148 H         1 UNK         0.0814 
    109 H109       28.7411   -0.2061   -3.7598 H         1 UNK         0.0814 
    110 H110       26.7449    0.9895   -7.4750 H         1 UNK         0.2983 
    111 H111       28.0062    3.5279   -8.4212 H         1 UNK         0.0947 
    112 H112       25.7472    4.0218   -9.3452 H         1 UNK         0.0806 
    113 H113       25.6865    3.7871   -7.6058 H         1 UNK         0.0806 
    114 H114       25.1259    2.5141   -8.6857 H         1 UNK         0.0806 
    115 H115       26.5939    0.4017   -9.5079 H         1 UNK         0.3000 
    116 H116       26.9914    0.7362  -12.2672 H         1 UNK         0.0850 
    117 H117       26.6549   -1.6979  -12.4047 H         1 UNK         0.0810 
    118 H118       25.5530   -1.0379  -11.2055 H         1 UNK         0.0810 
    119 H119       27.0106   -1.8943  -10.6979 H         1 UNK         0.0810 
    120 H120       29.2056   -0.6461   -9.8182 H         1 UNK         0.3040 
    121 H121       31.5083   -0.2271  -11.6808 H         1 UNK         0.0766 
    122 H122       32.7129   -1.8513  -10.1482 H         1 UNK         0.0812 
    123 H123       31.4160   -2.6265  -11.0486 H         1 UNK         0.0812 
    124 H124       31.1825   -2.2121   -9.3546 H         1 UNK         0.0812 
    125 H125       32.8369    1.3908  -10.9109 H         1 UNK         0.3205 
    126 H126       31.6782    3.1897   -9.0531 H         1 UNK         0.0754 
    127 H127       33.5446    4.6722   -9.7479 H         1 UNK         0.0769 
    128 H128       32.8142    3.8918  -11.1367 H         1 UNK         0.0769 
    129 H129       34.3631    3.3178  -10.5157 H         1 UNK         0.0769 
    130 H130       31.9666    1.2215   -7.3493 H         1 UNK         0.2981 
    131 H131       34.3380    1.5832   -5.6547 H         1 UNK         0.0541 
    132 H132       31.0371    3.0379   -5.7658 H         1 UNK         0.3459 
    133 H133       31.3352    4.0541   -4.3749 H         1 UNK         0.3459 
    134 H134       31.7755    0.0332   -5.0668 H         1 UNK         0.0612 
    135 H135       33.2063    0.0399   -4.0713 H         1 UNK         0.0612 
    136 H136       31.3971   -1.4947   -7.0137 H         1 UNK         0.0624 
    137 H137       32.4089   -2.8862   -7.3138 H         1 UNK         0.0624 
@<TRIPOS>BOND
     1    1    2 1    
     2    1   72 1    
     3    1   73 1    
     4    1   74 1    
     5    2    3 2    
     6    2    4 am   BACKBONE|DICT|INTERRES
     7    4    5 1    
     8    4   75 1    
     9    5    6 1    
    10    5   35 1    
    11    5   76 1    
    12    6    7 1    
    13    6   77 1    
    14    6   78 1    
    15    7    8 1    
    16    8    9 1    
    17    8   79 1    
    18    8   80 1    
    19    9   10 ar   
    20    9   14 ar   
    21   10   11 ar   
    22   10   81 1    
    23   11   12 ar   
    24   11   71 1    
    25   12   13 ar   
    26   12   82 1    
    27   13   14 ar   
    28   13   15 1    
    29   14   83 1    
    30   15   16 1    
    31   15   84 1    
    32   15   85 1    
    33   16   17 1    
    34   17   18 1    
    35   17   86 1    
    36   17   87 1    
    37   18   19 1    
    38   18   37 1    
    39   18   88 1    
    40   19   20 am   BACKBONE|DICT|INTERRES
    41   19   89 1    
    42   20   21 2    
    43   20   22 1    
    44   22   23 1    
    45   22   24 1    
    46   22   90 1    
    47   23   91 1    
    48   23   92 1    
    49   23   93 1    
    50   24   25 am   BACKBONE|DICT|INTERRES
    51   24   94 1    
    52   25   26 2    
    53   25   27 1    
    54   27   28 1    
    55   27   29 1    
    56   27   95 1    
    57   28   96 1    
    58   28   97 1    
    59   28   98 1    
    60   29   30 am   BACKBONE|DICT|INTERRES
    61   29   99 1    
    62   30   31 2    
    63   30   32 1    
    64   32   33 1    
    65   32   34 1    
    66   32  100 1    
    67   33  101 1    
    68   33  102 1    
    69   33  103 1    
    70   34   35 am   BACKBONE|DICT|INTERRES
    71   34  104 1    
    72   35   36 2    
    73   37   38 2    
    74   37   39 am   BACKBONE|DICT|INTERRES
    75   39   40 1    
    76   39  105 1    
    77   40   41 1    
    78   40   42 1    
    79   40  106 1    
    80   41  107 1    
    81   41  108 1    
    82   41  109 1    
    83   42   43 2    
    84   42   44 am   BACKBONE|DICT|INTERRES
    85   44   45 1    
    86   44  110 1    
    87   45   46 1    
    88   45   47 1    
    89   45  111 1    
    90   46  112 1    
    91   46  113 1    
    92   46  114 1    
    93   47   48 2    
    94   47   49 am   BACKBONE|DICT|INTERRES
    95   49   50 1    
    96   49  115 1    
    97   50   51 1    
    98   50   52 1    
    99   50  116 1    
   100   51  117 1    
   101   51  118 1    
   102   51  119 1    
   103   52   53 2    
   104   52   54 am   BACKBONE|DICT|INTERRES
   105   54   55 1    
   106   54  120 1    
   107   55   56 1    
   108   55   57 1    
   109   55  121 1    
   110   56  122 1    
   111   56  123 1    
   112   56  124 1    
   113   57   58 2    
   114   57   59 am   BACKBONE|DICT|INTERRES
   115   59   60 1    
   116   59  125 1    
   117   60   61 1    
   118   60   62 1    
   119   60  126 1    
   120   61  127 1    
   121   61  128 1    
   122   61  129 1    
   123   62   63 2    
   124   62   64 am   BACKBONE|DICT|INTERRES
   125   64   65 1    
   126   64  130 1    
   127   65   66 1    
   128   65   69 1    
   129   65  131 1    
   130   66   67 am   BACKBONE|DICT|INTERRES
   131   66   68 2    
   132   67  132 1    
   133   67  133 1    
   134   69   70 1    
   135   69  134 1    
   136   69  135 1    
   137   70   71 1    
   138   71  136 1    
   139   71  137 1    
@<TRIPOS>SUBSTRUCTURE
     1 UNK         1 GROUP             0       ****    0 ROOT    
