@<TRIPOS>MOLECULE
3R137
137   139    1
SMALL
USER_CHARGES


@<TRIPOS>ATOM
      1 CA         26.2830   -5.5036   -2.4251 C.3       0 UNK        -0.2020 
      2 C          26.1633   -4.1988   -1.6522 C.2       0 UNK         0.4855 
      3 O          25.0608   -3.8207   -1.2569 O.2       0 UNK        -0.5197 
      4 N          27.2885   -3.5120   -1.4152 N.am      1 UNK        -0.4892 
      5 CA         27.3272   -2.2135   -0.7428 C.3       1 UNK         0.0835 
      6 C6         28.6887   -1.9557   -0.0430 C.3       12 UNK        -0.0855 
      7 S7         30.1112   -1.6361   -1.1421 S.3       12 UNK        -0.2931 
      8 C8         30.8379   -3.2864   -1.3769 C.3       12 UNK         0.0378 
      9 C9         30.9585   -3.6118   -2.8585 C.ar      12 UNK        -0.0802 
     10 C10        32.0385   -3.1206   -3.5981 C.ar      12 UNK        -0.0944 
     11 C11        32.1743   -3.4395   -4.9520 C.ar      12 UNK        -0.0787 
     12 C12        31.2065   -4.2378   -5.5731 C.ar      12 UNK        -0.0862 
     13 C13        30.1193   -4.7333   -4.8449 C.ar      12 UNK        -0.0733 
     14 C14        30.0083   -4.4216   -3.4875 C.ar      12 UNK        -0.0832 
     15 C15        29.1054   -5.6674   -5.4967 C.3       12 UNK         0.0240 
     16 S16        28.1544   -4.8861   -6.8385 S.3       12 UNK        -0.2522 
     17 C17        27.0361   -3.7440   -5.9529 C.3       12 UNK        -0.0967 
     18 CA         26.7261   -2.4939   -6.8162 C.3       5 UNK         0.0660 
     19 N          25.4469   -1.8548   -6.4774 N.am      5 UNK        -0.4015 
     20 C          24.9026   -0.8204   -7.1365 C.2       4 UNK         0.4946 
     21 O          25.4839   -0.1880   -8.0163 O.2       4 UNK        -0.5353 
     22 CA         23.4623   -0.4071   -6.7931 C.3       4 UNK         0.0277 
     23 CB         22.4439   -1.2789   -7.5531 C.3       4 UNK        -0.1981 
     24 N          23.1536   -0.3351   -5.3622 N.am      4 UNK        -0.4209 
     25 C          23.0705   -1.3192   -4.4600 C.2       3 UNK         0.4942 
     26 O          23.3217   -2.5019   -4.7005 O.2       3 UNK        -0.5208 
     27 CA         22.6881   -0.8746   -3.0375 C.3       3 UNK         0.0250 
     28 CB         22.0660   -2.0162   -2.2141 C.3       3 UNK        -0.1990 
     29 N          23.8576   -0.3492   -2.3344 N.am      3 UNK        -0.4232 
     30 C          24.4648    0.8181   -2.5986 C.2       2 UNK         0.4993 
     31 O          24.0288    1.6392   -3.4074 O.2       2 UNK        -0.5286 
     32 CA         25.7745    1.1334   -1.8499 C.3       2 UNK         0.0209 
     33 CB         25.5667    2.2935   -0.8621 C.3       2 UNK        -0.1931 
     34 N          26.3407   -0.0111   -1.1280 N.am      2 UNK        -0.4546 
     35 C          26.8900   -1.0877   -1.7064 C.2       1 UNK         0.5154 
     36 O          27.0227   -1.2154   -2.9297 O.2       1 UNK        -0.5181 
     37 C          27.9100   -1.5109   -6.8604 C.2       5 UNK         0.5014 
     38 O          28.5127   -1.3452   -7.9235 O.2       5 UNK        -0.5248 
     39 N          28.1911   -0.8409   -5.7326 N.am      6 UNK        -0.4434 
     40 CA         29.2885    0.1245   -5.6366 C.3       6 UNK         0.0363 
     41 CB         29.4988    0.5402   -4.1767 C.3       6 UNK        -0.1936 
     42 C          29.1026    1.3661   -6.5194 C.2       6 UNK         0.5081 
     43 O          30.0992    1.9230   -6.9752 O.2       6 UNK        -0.5248 
     44 N          27.8474    1.7683   -6.7585 N.am      7 UNK        -0.4718 
     45 CA         27.4974    2.8840   -7.6371 C.3       7 UNK         0.0273 
     46 CB         26.0388    3.3033   -7.3899 C.3       7 UNK        -0.1935 
     47 C          27.7363    2.5461   -9.1170 C.2       7 UNK         0.5018 
     48 O          28.3475    3.3452   -9.8265 O.2       7 UNK        -0.5186 
     49 N          27.2702    1.3656   -9.5482 N.am      8 UNK        -0.4240 
     50 CA         27.4111    0.8619  -10.9151 C.3       8 UNK         0.0235 
     51 CB         26.5005   -0.3615  -11.1105 C.3       8 UNK        -0.2000 
     52 C          28.8631    0.5183  -11.2773 C.2       8 UNK         0.4941 
     53 O          29.3127    0.8765  -12.3666 O.2       8 UNK        -0.5273 
     54 N          29.5704   -0.1618  -10.3647 N.am      9 UNK        -0.4262 
     55 CA         30.9645   -0.5729  -10.5514 C.3       9 UNK         0.0264 
     56 CB         31.2277   -1.8309   -9.7098 C.3       9 UNK        -0.1955 
     57 C          31.9882    0.5370  -10.2398 C.2       9 UNK         0.5031 
     58 O          33.1623    0.3610  -10.5692 O.2       9 UNK        -0.5390 
     59 N          31.5400    1.6456   -9.6282 N.am      10 UNK        -0.4204 
     60 CA         32.3251    2.8080   -9.1874 C.3       10 UNK         0.0237 
     61 CB         32.9034    3.5758  -10.3956 C.3       10 UNK        -0.1985 
     62 C          33.3885    2.4313   -8.1358 C.2       10 UNK         0.4970 
     63 O          34.5538    2.8148   -8.2612 O.2       10 UNK        -0.4914 
     64 N          32.9609    1.6631   -7.1290 N.am      11 UNK        -0.4285 
     65 CA         33.7992    1.1630   -6.0309 C.3       11 UNK         0.1007 
     66 C          34.0300    2.2414   -4.9400 C.2       11 UNK         0.5703 
     67 N          35.1540    2.1797   -4.2387 N.am      11 UNK        -0.7361 
     68 O          33.1922    3.1088   -4.6976 O.2       11 UNK        -0.4986 
     69 C69        33.2230   -0.1407   -5.4180 C.3       12 UNK        -0.0947 
     70 S70        33.0523   -1.4519   -6.6741 S.3       12 UNK        -0.2240 
     71 C71        33.3921   -2.9661   -5.7318 C.3       12 UNK         0.0194 
     72 H72        26.1398   -5.3270   -3.4900 H         1 UNK         0.0906 
     73 H73        27.2525   -5.9760   -2.2738 H         1 UNK         0.0906 
     74 H74        25.5194   -6.2076   -2.0947 H         1 UNK         0.0906 
     75 H75        28.1661   -3.8139   -1.8048 H         1 UNK         0.3140 
     76 H76        26.5803   -2.2478    0.0544 H         1 UNK         0.1085 
     77 H77        28.5952   -1.0875    0.6118 H         1 UNK         0.0836 
     78 H78        28.9268   -2.7843    0.6259 H         1 UNK         0.0836 
     79 H79        30.2480   -4.0479   -0.8654 H         1 UNK         0.0731 
     80 H80        31.8247   -3.3076   -0.9119 H         1 UNK         0.0731 
     81 H81        32.7820   -2.5022   -3.1138 H         1 UNK         0.1312 
     82 H82        31.3093   -4.4907   -6.6197 H         1 UNK         0.1406 
     83 H83        29.1947   -4.8378   -2.9168 H         1 UNK         0.1631 
     84 H84        28.4098   -6.0728   -4.7606 H         1 UNK         0.0717 
     85 H85        29.6401   -6.5243   -5.9086 H         1 UNK         0.0717 
     86 H86        26.1164   -4.2929   -5.7455 H         1 UNK         0.0934 
     87 H87        27.4519   -3.4698   -4.9811 H         1 UNK         0.0934 
     88 H88        26.5841   -2.8390   -7.8432 H         1 UNK         0.0739 
     89 H89        24.8733   -2.2995   -5.7650 H         1 UNK         0.3093 
     90 H90        23.3447    0.6142   -7.1594 H         1 UNK         0.0818 
     91 H91        21.4240   -0.9315   -7.3886 H         1 UNK         0.0819 
     92 H92        22.6285   -1.2428   -8.6277 H         1 UNK         0.0819 
     93 H93        22.4942   -2.3258   -7.2526 H         1 UNK         0.0819 
     94 H94        23.0601    0.6067   -4.9951 H         1 UNK         0.3041 
     95 H95        21.9423   -0.0803   -3.1171 H         1 UNK         0.0784 
     96 H96        21.1764   -2.4097   -2.7075 H         1 UNK         0.0793 
     97 H97        22.7578   -2.8484   -2.0837 H         1 UNK         0.0793 
     98 H98        21.7632   -1.6737   -1.2245 H         1 UNK         0.0793 
     99 H99        24.3009   -0.9767   -1.6794 H         1 UNK         0.3024 
    100 H100       26.4974    1.4511   -2.6041 H         1 UNK         0.1171 
    101 H101       26.5037    2.5815   -0.3847 H         1 UNK         0.0786 
    102 H102       25.1820    3.1780   -1.3722 H         1 UNK         0.0786 
    103 H103       24.8540    2.0344   -0.0781 H         1 UNK         0.0786 
    104 H104       26.2731    0.0210   -0.1204 H         1 UNK         0.2977 
    105 H105       27.6628   -1.0254   -4.8840 H         1 UNK         0.3127 
    106 H106       30.1920   -0.3821   -5.9810 H         1 UNK         0.0770 
    107 H107       28.6014    0.9835   -3.7462 H         1 UNK         0.0814 
    108 H108       30.3030    1.2716   -4.0841 H         1 UNK         0.0814 
    109 H109       29.7747   -0.3218   -3.5745 H         1 UNK         0.0814 
    110 H110       27.0874    1.2205   -6.3826 H         1 UNK         0.2983 
    111 H111       28.1398    3.7306   -7.3831 H         1 UNK         0.0947 
    112 H112       25.7688    4.1550   -8.0157 H         1 UNK         0.0806 
    113 H113       25.8822    3.6016   -6.3531 H         1 UNK         0.0806 
    114 H114       25.3380    2.4994   -7.6163 H         1 UNK         0.0806 
    115 H115       26.7502    0.7749   -8.8996 H         1 UNK         0.3000 
    116 H116       27.0759    1.6468  -11.5966 H         1 UNK         0.0850 
    117 H117       26.5793   -0.7513  -12.1262 H         1 UNK         0.0810 
    118 H118       25.4544   -0.1067  -10.9398 H         1 UNK         0.0810 
    119 H119       26.7607   -1.1706  -10.4262 H         1 UNK         0.0810 
    120 H120       29.1187   -0.4571   -9.4999 H         1 UNK         0.3040 
    121 H121       31.1109   -0.8459  -11.5987 H         1 UNK         0.0766 
    122 H122       31.0196   -1.6543   -8.6556 H         1 UNK         0.0812 
    123 H123       32.2662   -2.1545   -9.7912 H         1 UNK         0.0812 
    124 H124       30.6012   -2.6618  -10.0340 H         1 UNK         0.0812 
    125 H125       30.5628    1.6684   -9.3685 H         1 UNK         0.3205 
    126 H126       31.6233    3.4751   -8.6843 H         1 UNK         0.0754 
    127 H127       33.3855    4.5001  -10.0751 H         1 UNK         0.0769 
    128 H128       32.1195    3.8476  -11.1026 H         1 UNK         0.0769 
    129 H129       33.6501    2.9892  -10.9315 H         1 UNK         0.0769 
    130 H130       31.9632    1.4894   -7.0549 H         1 UNK         0.2981 
    131 H131       34.7766    0.9187   -6.4527 H         1 UNK         0.0541 
    132 H132       35.3176    2.8634   -3.5162 H         1 UNK         0.3459 
    133 H133       35.8451    1.4686   -4.4205 H         1 UNK         0.3459 
    134 H134       32.2516    0.0372   -4.9581 H         1 UNK         0.0612 
    135 H135       33.8758   -0.5014   -4.6215 H         1 UNK         0.0612 
    136 H136       33.6964   -3.7453   -6.4321 H         1 UNK         0.0624 
    137 H137       34.2439   -2.8102   -5.0683 H         1 UNK         0.0624 
@<TRIPOS>BOND
     1    1    2 1    
     2    1   72 1    
     3    1   73 1    
     4    1   74 1    
     5    2    3 2    
     6    2    4 am   BACKBONE|DICT|INTERRES
     7    4    5 1    
     8    4   75 1    
     9    5    6 1    
    10    5   35 1    
    11    5   76 1    
    12    6    7 1    
    13    6   77 1    
    14    6   78 1    
    15    7    8 1    
    16    8    9 1    
    17    8   79 1    
    18    8   80 1    
    19    9   10 ar   
    20    9   14 ar   
    21   10   11 ar   
    22   10   81 1    
    23   11   12 ar   
    24   11   71 1    
    25   12   13 ar   
    26   12   82 1    
    27   13   14 ar   
    28   13   15 1    
    29   14   83 1    
    30   15   16 1    
    31   15   84 1    
    32   15   85 1    
    33   16   17 1    
    34   17   18 1    
    35   17   86 1    
    36   17   87 1    
    37   18   19 1    
    38   18   37 1    
    39   18   88 1    
    40   19   20 am   BACKBONE|DICT|INTERRES
    41   19   89 1    
    42   20   21 2    
    43   20   22 1    
    44   22   23 1    
    45   22   24 1    
    46   22   90 1    
    47   23   91 1    
    48   23   92 1    
    49   23   93 1    
    50   24   25 am   BACKBONE|DICT|INTERRES
    51   24   94 1    
    52   25   26 2    
    53   25   27 1    
    54   27   28 1    
    55   27   29 1    
    56   27   95 1    
    57   28   96 1    
    58   28   97 1    
    59   28   98 1    
    60   29   30 am   BACKBONE|DICT|INTERRES
    61   29   99 1    
    62   30   31 2    
    63   30   32 1    
    64   32   33 1    
    65   32   34 1    
    66   32  100 1    
    67   33  101 1    
    68   33  102 1    
    69   33  103 1    
    70   34   35 am   BACKBONE|DICT|INTERRES
    71   34  104 1    
    72   35   36 2    
    73   37   38 2    
    74   37   39 am   BACKBONE|DICT|INTERRES
    75   39   40 1    
    76   39  105 1    
    77   40   41 1    
    78   40   42 1    
    79   40  106 1    
    80   41  107 1    
    81   41  108 1    
    82   41  109 1    
    83   42   43 2    
    84   42   44 am   BACKBONE|DICT|INTERRES
    85   44   45 1    
    86   44  110 1    
    87   45   46 1    
    88   45   47 1    
    89   45  111 1    
    90   46  112 1    
    91   46  113 1    
    92   46  114 1    
    93   47   48 2    
    94   47   49 am   BACKBONE|DICT|INTERRES
    95   49   50 1    
    96   49  115 1    
    97   50   51 1    
    98   50   52 1    
    99   50  116 1    
   100   51  117 1    
   101   51  118 1    
   102   51  119 1    
   103   52   53 2    
   104   52   54 am   BACKBONE|DICT|INTERRES
   105   54   55 1    
   106   54  120 1    
   107   55   56 1    
   108   55   57 1    
   109   55  121 1    
   110   56  122 1    
   111   56  123 1    
   112   56  124 1    
   113   57   58 2    
   114   57   59 am   BACKBONE|DICT|INTERRES
   115   59   60 1    
   116   59  125 1    
   117   60   61 1    
   118   60   62 1    
   119   60  126 1    
   120   61  127 1    
   121   61  128 1    
   122   61  129 1    
   123   62   63 2    
   124   62   64 am   BACKBONE|DICT|INTERRES
   125   64   65 1    
   126   64  130 1    
   127   65   66 1    
   128   65   69 1    
   129   65  131 1    
   130   66   67 am   BACKBONE|DICT|INTERRES
   131   66   68 2    
   132   67  132 1    
   133   67  133 1    
   134   69   70 1    
   135   69  134 1    
   136   69  135 1    
   137   70   71 1    
   138   71  136 1    
   139   71  137 1    
@<TRIPOS>SUBSTRUCTURE
     1 UNK         1 GROUP             0       ****    0 ROOT    
