@<TRIPOS>MOLECULE
3R137
137   139    1
SMALL
USER_CHARGES


@<TRIPOS>ATOM
      1 CA         28.1420   -0.7603    3.0199 C.3       0 UNK        -0.2020 
      2 C          28.4440   -2.1112    2.3748 C.2       0 UNK         0.4855 
      3 O          28.6772   -3.0822    3.0924 O.2       0 UNK        -0.5197 
      4 N          28.4691   -2.2291    1.0401 N.am      1 UNK        -0.4892 
      5 CA         28.1449   -1.1937    0.0489 C.3       1 UNK         0.0835 
      6 C6         28.6476   -1.5776   -1.3650 C.3       12 UNK        -0.0855 
      7 S7         30.4628   -1.7367   -1.4311 S.3       12 UNK        -0.2931 
      8 C8         30.6736   -3.5016   -1.8269 C.3       12 UNK         0.0378 
      9 C9         30.5657   -3.7702   -3.3222 C.ar      12 UNK        -0.0802 
     10 C10        31.6107   -3.3909   -4.1686 C.ar      12 UNK        -0.0944 
     11 C11        31.5608   -3.6717   -5.5365 C.ar      12 UNK        -0.0787 
     12 C12        30.4480   -4.3403   -6.0606 C.ar      12 UNK        -0.0862 
     13 C13        29.4031   -4.7448   -5.2213 C.ar      12 UNK        -0.0733 
     14 C14        29.4610   -4.4428   -3.8553 C.ar      12 UNK        -0.0832 
     15 C15        28.2549   -5.5889   -5.7616 C.3       12 UNK         0.0240 
     16 S16        26.7757   -4.6061   -6.1592 S.3       12 UNK        -0.2522 
     17 C17        26.9449   -4.3425   -7.9641 C.3       12 UNK        -0.0967 
     18 CA         26.6434   -2.8933   -8.4267 C.3       5 UNK         0.0660 
     19 N          25.3670   -2.3922   -7.9071 N.am      5 UNK        -0.4015 
     20 C          24.8010   -1.2219   -8.2338 C.2       4 UNK         0.4946 
     21 O          25.2571   -0.4478   -9.0733 O.2       4 UNK        -0.5353 
     22 CA         23.5297   -0.8223   -7.4682 C.3       4 UNK         0.0277 
     23 CB         22.2797   -1.3503   -8.1898 C.3       4 UNK        -0.1981 
     24 N          23.5148   -1.2628   -6.0694 N.am      4 UNK        -0.4209 
     25 C          24.3977   -0.8841   -5.1352 C.2       3 UNK         0.4942 
     26 O          25.3712   -0.1572   -5.3543 O.2       3 UNK        -0.5208 
     27 CA         24.1708   -1.4505   -3.7309 C.3       3 UNK         0.0250 
     28 CB         24.8756   -2.8086   -3.5744 C.3       3 UNK        -0.1990 
     29 N          24.7114   -0.5246   -2.7407 N.am      3 UNK        -0.4232 
     30 C          24.0824   -0.1207   -1.6303 C.2       2 UNK         0.4993 
     31 O          22.9337   -0.4544   -1.3309 O.2       2 UNK        -0.5286 
     32 CA         24.8990    0.7862   -0.6854 C.3       2 UNK         0.0209 
     33 CB         24.1984    1.0346    0.6687 C.3       2 UNK        -0.1931 
     34 N          26.2701    0.2929   -0.4748 N.am      2 UNK        -0.4546 
     35 C          26.6292   -0.9095    0.0053 C.2       1 UNK         0.5154 
     36 O          25.8324   -1.7762    0.3736 O.2       1 UNK        -0.5181 
     37 C          27.8096   -1.9404   -8.1095 C.2       5 UNK         0.5014 
     38 O          28.5480   -1.5587   -9.0182 O.2       5 UNK        -0.5248 
     39 N          27.9153   -1.5445   -6.8345 N.am      6 UNK        -0.4434 
     40 CA         28.9262   -0.6210   -6.3306 C.3       6 UNK         0.0363 
     41 CB         28.8724   -0.5827   -4.7992 C.3       6 UNK        -0.1936 
     42 C          28.7796    0.7877   -6.9143 C.2       6 UNK         0.5081 
     43 O          29.7914    1.4169   -7.2199 O.2       6 UNK        -0.5248 
     44 N          27.5309    1.2436   -7.0824 N.am      7 UNK        -0.4718 
     45 CA         27.1989    2.5140   -7.7264 C.3       7 UNK         0.0273 
     46 CB         25.7093    2.8281   -7.5147 C.3       7 UNK        -0.1935 
     47 C          27.5616    2.5277   -9.2213 C.2       7 UNK         0.5018 
     48 O          28.1868    3.4851   -9.6775 O.2       7 UNK        -0.5186 
     49 N          27.1819    1.4671   -9.9493 N.am      8 UNK        -0.4240 
     50 CA         27.4314    1.3094  -11.3843 C.3       8 UNK         0.0235 
     51 CB         26.6185    0.1233  -11.9281 C.3       8 UNK        -0.2000 
     52 C          28.9194    1.1444  -11.7270 C.2       8 UNK         0.4941 
     53 O          29.3975    1.7950  -12.6572 O.2       8 UNK        -0.5273 
     54 N          29.6251    0.2865  -10.9773 N.am      9 UNK        -0.4262 
     55 CA         31.0529    0.0159  -11.1713 C.3       9 UNK         0.0264 
     56 CB         31.3730   -1.3899  -10.6408 C.3       9 UNK        -0.1955 
     57 C          31.9766    1.0736  -10.5370 C.2       9 UNK         0.5031 
     58 O          33.1761    1.0498  -10.8175 O.2       9 UNK        -0.5390 
     59 N          31.4169    1.9712   -9.7103 N.am      10 UNK        -0.4204 
     60 CA         32.0885    3.0319   -8.9492 C.3       10 UNK         0.0237 
     61 CB         32.6916    4.0966   -9.8908 C.3       10 UNK        -0.1985 
     62 C          33.1018    2.4625   -7.9377 C.2       10 UNK         0.4970 
     63 O          34.2619    2.8793   -7.9144 O.2       10 UNK        -0.4914 
     64 N          32.6357    1.5049   -7.1277 N.am      11 UNK        -0.4285 
     65 CA         33.4292    0.8095   -6.1005 C.3       11 UNK         0.1007 
     66 C          33.7081    1.6555   -4.8243 C.2       11 UNK         0.5703 
     67 N          33.0369    2.7815   -4.6098 N.am      11 UNK        -0.7361 
     68 O          34.5590    1.2869   -4.0182 O.2       11 UNK        -0.4986 
     69 C69        32.8181   -0.5663   -5.7251 C.3       12 UNK        -0.0947 
     70 S70        32.6026   -1.6623   -7.1669 S.3       12 UNK        -0.2240 
     71 C71        32.7455   -3.3171   -6.4270 C.3       12 UNK         0.0194 
     72 H72        28.7974    0.0195    2.6341 H         1 UNK         0.0906 
     73 H73        27.1055   -0.4704    2.8509 H         1 UNK         0.0906 
     74 H74        28.2973   -0.8117    4.0975 H         1 UNK         0.0906 
     75 H75        28.6625   -3.1393    0.6504 H         1 UNK         0.3140 
     76 H76        28.6494   -0.2709    0.3415 H         1 UNK         0.1085 
     77 H77        28.1732   -2.4968   -1.7148 H         1 UNK         0.0836 
     78 H78        28.3719   -0.8052   -2.0832 H         1 UNK         0.0836 
     79 H79        29.9550   -4.0999   -1.2649 H         1 UNK         0.0731 
     80 H80        31.6596   -3.8174   -1.4829 H         1 UNK         0.0731 
     81 H81        32.4744   -2.8902   -3.7534 H         1 UNK         0.1312 
     82 H82        30.4152   -4.5799   -7.1146 H         1 UNK         0.1406 
     83 H83        28.6595   -4.7632   -3.2035 H         1 UNK         0.1631 
     84 H84        27.9758   -6.3309   -5.0120 H         1 UNK         0.0717 
     85 H85        28.5745   -6.1630   -6.6325 H         1 UNK         0.0717 
     86 H86        27.9378   -4.6483   -8.2998 H         1 UNK         0.0934 
     87 H87        26.2525   -5.0264   -8.4574 H         1 UNK         0.0934 
     88 H88        26.5497   -2.9122   -9.5148 H         1 UNK         0.0739 
     89 H89        24.9261   -2.9607   -7.1992 H         1 UNK         0.3093 
     90 H90        23.4836    0.2686   -7.4653 H         1 UNK         0.0818 
     91 H91        21.3657   -0.9875   -7.7190 H         1 UNK         0.0819 
     92 H92        22.2598   -1.0166   -9.2285 H         1 UNK         0.0819 
     93 H93        22.2451   -2.4405   -8.1974 H         1 UNK         0.0819 
     94 H94        22.7545   -1.8704   -5.7981 H         1 UNK         0.3041 
     95 H95        23.0969   -1.5831   -3.5822 H         1 UNK         0.0784 
     96 H96        24.4840   -3.5407   -4.2815 H         1 UNK         0.0793 
     97 H97        25.9504   -2.7286   -3.7441 H         1 UNK         0.0793 
     98 H98        24.7280   -3.2157   -2.5737 H         1 UNK         0.0793 
     99 H99        25.6170   -0.1373   -2.9670 H         1 UNK         0.3024 
    100 H100       24.9831    1.7496   -1.1917 H         1 UNK         0.1171 
    101 H101       24.7846    1.7000    1.3026 H         1 UNK         0.0786 
    102 H102       23.2237    1.5024    0.5244 H         1 UNK         0.0786 
    103 H103       24.0346    0.1067    1.2177 H         1 UNK         0.0786 
    104 H104       27.0020    0.9318   -0.7557 H         1 UNK         0.2977 
    105 H105       27.2458   -1.8973   -6.1664 H         1 UNK         0.3127 
    106 H106       29.8983   -1.0084   -6.6327 H         1 UNK         0.0770 
    107 H107       27.9067   -0.2294   -4.4380 H         1 UNK         0.0814 
    108 H108       29.0505   -1.5715   -4.3791 H         1 UNK         0.0814 
    109 H109       29.6358    0.0830   -4.3949 H         1 UNK         0.0814 
    110 H110       26.7596    0.6706   -6.7566 H         1 UNK         0.2983 
    111 H111       27.7832    3.2966   -7.2371 H         1 UNK         0.0947 
    112 H112       25.4565    2.8568   -6.4545 H         1 UNK         0.0806 
    113 H113       25.0669    2.0874   -7.9908 H         1 UNK         0.0806 
    114 H114       25.4532    3.8006   -7.9370 H         1 UNK         0.0806 
    115 H115       26.6325    0.7345   -9.5027 H         1 UNK         0.3000 
    116 H116       27.0784    2.2153  -11.8817 H         1 UNK         0.0850 
    117 H117       26.7878   -0.0119  -12.9972 H         1 UNK         0.0810 
    118 H118       25.5489    0.2796  -11.7865 H         1 UNK         0.0810 
    119 H119       26.8866   -0.8106  -11.4320 H         1 UNK         0.0810 
    120 H120       29.1553   -0.2457  -10.2459 H         1 UNK         0.3040 
    121 H121       31.2655    0.0170  -12.2427 H         1 UNK         0.0766 
    122 H122       31.1202   -1.4825   -9.5860 H         1 UNK         0.0812 
    123 H123       32.4333   -1.6235  -10.7462 H         1 UNK         0.0812 
    124 H124       30.8154   -2.1537  -11.1826 H         1 UNK         0.0812 
    125 H125       30.4293    1.8680   -9.5164 H         1 UNK         0.3205 
    126 H126       31.3105    3.5212   -8.3609 H         1 UNK         0.0754 
    127 H127       33.0900    4.9378   -9.3223 H         1 UNK         0.0769 
    128 H128       31.9384    4.4933  -10.5718 H         1 UNK         0.0769 
    129 H129       33.5085    3.6952  -10.4912 H         1 UNK         0.0769 
    130 H130       31.6490    1.2642   -7.1836 H         1 UNK         0.2981 
    131 H131       34.4098    0.6110   -6.5376 H         1 UNK         0.0541 
    132 H132       32.3352    3.0893   -5.2632 H         1 UNK         0.3459 
    133 H133       33.2318    3.3228   -3.7826 H         1 UNK         0.3459 
    134 H134       31.8513   -0.4392   -5.2374 H         1 UNK         0.0612 
    135 H135       33.4620   -1.0735   -5.0048 H         1 UNK         0.0612 
    136 H136       33.6779   -3.3832   -5.8643 H         1 UNK         0.0624 
    137 H137       32.8291   -4.0478   -7.2327 H         1 UNK         0.0624 
@<TRIPOS>BOND
     1    1    2 1    
     2    1   72 1    
     3    1   73 1    
     4    1   74 1    
     5    2    3 2    
     6    2    4 am   BACKBONE|DICT|INTERRES
     7    4    5 1    
     8    4   75 1    
     9    5    6 1    
    10    5   35 1    
    11    5   76 1    
    12    6    7 1    
    13    6   77 1    
    14    6   78 1    
    15    7    8 1    
    16    8    9 1    
    17    8   79 1    
    18    8   80 1    
    19    9   10 ar   
    20    9   14 ar   
    21   10   11 ar   
    22   10   81 1    
    23   11   12 ar   
    24   11   71 1    
    25   12   13 ar   
    26   12   82 1    
    27   13   14 ar   
    28   13   15 1    
    29   14   83 1    
    30   15   16 1    
    31   15   84 1    
    32   15   85 1    
    33   16   17 1    
    34   17   18 1    
    35   17   86 1    
    36   17   87 1    
    37   18   19 1    
    38   18   37 1    
    39   18   88 1    
    40   19   20 am   BACKBONE|DICT|INTERRES
    41   19   89 1    
    42   20   21 2    
    43   20   22 1    
    44   22   23 1    
    45   22   24 1    
    46   22   90 1    
    47   23   91 1    
    48   23   92 1    
    49   23   93 1    
    50   24   25 am   BACKBONE|DICT|INTERRES
    51   24   94 1    
    52   25   26 2    
    53   25   27 1    
    54   27   28 1    
    55   27   29 1    
    56   27   95 1    
    57   28   96 1    
    58   28   97 1    
    59   28   98 1    
    60   29   30 am   BACKBONE|DICT|INTERRES
    61   29   99 1    
    62   30   31 2    
    63   30   32 1    
    64   32   33 1    
    65   32   34 1    
    66   32  100 1    
    67   33  101 1    
    68   33  102 1    
    69   33  103 1    
    70   34   35 am   BACKBONE|DICT|INTERRES
    71   34  104 1    
    72   35   36 2    
    73   37   38 2    
    74   37   39 am   BACKBONE|DICT|INTERRES
    75   39   40 1    
    76   39  105 1    
    77   40   41 1    
    78   40   42 1    
    79   40  106 1    
    80   41  107 1    
    81   41  108 1    
    82   41  109 1    
    83   42   43 2    
    84   42   44 am   BACKBONE|DICT|INTERRES
    85   44   45 1    
    86   44  110 1    
    87   45   46 1    
    88   45   47 1    
    89   45  111 1    
    90   46  112 1    
    91   46  113 1    
    92   46  114 1    
    93   47   48 2    
    94   47   49 am   BACKBONE|DICT|INTERRES
    95   49   50 1    
    96   49  115 1    
    97   50   51 1    
    98   50   52 1    
    99   50  116 1    
   100   51  117 1    
   101   51  118 1    
   102   51  119 1    
   103   52   53 2    
   104   52   54 am   BACKBONE|DICT|INTERRES
   105   54   55 1    
   106   54  120 1    
   107   55   56 1    
   108   55   57 1    
   109   55  121 1    
   110   56  122 1    
   111   56  123 1    
   112   56  124 1    
   113   57   58 2    
   114   57   59 am   BACKBONE|DICT|INTERRES
   115   59   60 1    
   116   59  125 1    
   117   60   61 1    
   118   60   62 1    
   119   60  126 1    
   120   61  127 1    
   121   61  128 1    
   122   61  129 1    
   123   62   63 2    
   124   62   64 am   BACKBONE|DICT|INTERRES
   125   64   65 1    
   126   64  130 1    
   127   65   66 1    
   128   65   69 1    
   129   65  131 1    
   130   66   67 am   BACKBONE|DICT|INTERRES
   131   66   68 2    
   132   67  132 1    
   133   67  133 1    
   134   69   70 1    
   135   69  134 1    
   136   69  135 1    
   137   70   71 1    
   138   71  136 1    
   139   71  137 1    
@<TRIPOS>SUBSTRUCTURE
     1 UNK         1 GROUP             0       ****    0 ROOT    
