@<TRIPOS>MOLECULE
3R137
137   139    1
SMALL
USER_CHARGES


@<TRIPOS>ATOM
      1 CA         28.8997    0.6082   -1.5117 C.3       0 UNK        -0.2020 
      2 C          28.2360   -0.6136   -2.1263 C.2       0 UNK         0.4855 
      3 O          27.6404   -0.5079   -3.1997 O.2       0 UNK        -0.5197 
      4 N          28.3334   -1.7628   -1.4416 N.am      1 UNK        -0.4892 
      5 CA         27.8295   -3.0774   -1.8621 C.3       1 UNK         0.0835 
      6 C6         28.1768   -4.2069   -0.8487 C.3       12 UNK        -0.0855 
      7 S7         29.8785   -4.1403   -0.1812 S.3       12 UNK        -0.2931 
      8 C8         30.7278   -5.4510   -1.1151 C.3       12 UNK         0.0378 
      9 C9         31.0297   -5.0031   -2.5348 C.ar      12 UNK        -0.0802 
     10 C10        32.1083   -4.1475   -2.7836 C.ar      12 UNK        -0.0944 
     11 C11        32.3705   -3.6999   -4.0811 C.ar      12 UNK        -0.0787 
     12 C12        31.5621   -4.1311   -5.1335 C.ar      12 UNK        -0.0862 
     13 C13        30.4681   -4.9659   -4.8924 C.ar      12 UNK        -0.0733 
     14 C14        30.2158   -5.4155   -3.5937 C.ar      12 UNK        -0.0832 
     15 C15        29.5190   -5.3206   -6.0258 C.3       12 UNK         0.0240 
     16 S16        27.9872   -4.3384   -5.9242 S.3       12 UNK        -0.2522 
     17 C17        28.6341   -2.6292   -5.9108 C.3       12 UNK        -0.0967 
     18 CA         27.7849   -1.6690   -6.7637 C.3       5 UNK         0.0660 
     19 N          26.3988   -1.5839   -6.2970 N.am      5 UNK        -0.4015 
     20 C          25.3974   -1.0979   -7.0411 C.2       4 UNK         0.4946 
     21 O          25.5430   -0.6690   -8.1851 O.2       4 UNK        -0.5353 
     22 CA         24.0034   -1.0538   -6.3983 C.3       4 UNK         0.0277 
     23 CB         23.3329   -2.4349   -6.4667 C.3       4 UNK        -0.1981 
     24 N          24.0125   -0.5871   -5.0119 N.am      4 UNK        -0.4209 
     25 C          24.4742    0.5931   -4.5812 C.2       3 UNK         0.4942 
     26 O          24.9686    1.4383   -5.3255 O.2       3 UNK        -0.5208 
     27 CA         24.3928    0.8951   -3.0735 C.3       3 UNK         0.0250 
     28 CB         23.1450    1.7383   -2.7479 C.3       3 UNK        -0.1990 
     29 N          24.4943   -0.2798   -2.1947 N.am      3 UNK        -0.4232 
     30 C          23.6506   -1.3130   -2.0483 C.2       2 UNK         0.4993 
     31 O          22.5911   -1.4266   -2.6664 O.2       2 UNK        -0.5286 
     32 CA         24.1014   -2.4220   -1.0789 C.3       2 UNK         0.0209 
     33 CB         23.3494   -3.7537   -1.2944 C.3       2 UNK        -0.1931 
     34 N          25.5571   -2.6280   -1.0970 N.am      2 UNK        -0.4546 
     35 C          26.3109   -3.0436   -2.1297 C.2       1 UNK         0.5154 
     36 O          25.8708   -3.3367   -3.2421 O.2       1 UNK        -0.5181 
     37 C          28.4468   -0.2796   -6.8634 C.2       5 UNK         0.5014 
     38 O          29.2180   -0.0449   -7.7970 O.2       5 UNK        -0.5248 
     39 N          28.1196    0.6277   -5.9314 N.am      6 UNK        -0.4434 
     40 CA         28.5180    2.0358   -5.9844 C.3       6 UNK         0.0363 
     41 CB         28.2005    2.7326   -4.6534 C.3       6 UNK        -0.1936 
     42 C          27.8726    2.7781   -7.1659 C.2       6 UNK         0.5081 
     43 O          28.5718    3.5063   -7.8683 O.2       6 UNK        -0.5248 
     44 N          26.5737    2.5428   -7.4032 N.am      7 UNK        -0.4718 
     45 CA         25.8225    3.0699   -8.5489 C.3       7 UNK         0.0273 
     46 CB         24.3294    2.7470   -8.3820 C.3       7 UNK        -0.1935 
     47 C          26.3468    2.5561   -9.9023 C.2       7 UNK         0.5018 
     48 O          26.3941    3.3241  -10.8635 O.2       7 UNK        -0.5186 
     49 N          26.7770    1.2870   -9.9402 N.am      8 UNK        -0.4240 
     50 CA         27.4703    0.6617  -11.0714 C.3       8 UNK         0.0235 
     51 CB         27.4082   -0.8668  -10.9123 C.3       8 UNK        -0.2000 
     52 C          28.9326    1.1244  -11.2422 C.2       8 UNK         0.4941 
     53 O          29.5546    0.7557  -12.2394 O.2       8 UNK        -0.5273 
     54 N          29.4561    1.9038  -10.2829 N.am      9 UNK        -0.4262 
     55 CA         30.8124    2.4550  -10.2110 C.3       9 UNK         0.0264 
     56 CB         31.0735    3.4423  -11.3692 C.3       9 UNK        -0.1955 
     57 C          31.9074    1.3804  -10.0702 C.2       9 UNK         0.5031 
     58 O          33.0119    1.5676  -10.5850 O.2       9 UNK        -0.5390 
     59 N          31.6042    0.2861   -9.3549 N.am      10 UNK        -0.4204 
     60 CA         32.5689   -0.7739   -9.0419 C.3       10 UNK         0.0237 
     61 CB         31.8214   -2.0370   -8.5895 C.3       10 UNK        -0.1985 
     62 C          33.5852   -0.3354   -7.9729 C.2       10 UNK         0.4970 
     63 O          34.7617   -0.6840   -8.0758 O.2       10 UNK        -0.4914 
     64 N          33.1113    0.4290   -6.9830 N.am      11 UNK        -0.4285 
     65 CA         33.9003    0.9940   -5.8780 C.3       11 UNK         0.1007 
     66 C          33.2702    2.2854   -5.2780 C.2       11 UNK         0.5703 
     67 N          32.3568    2.9585   -5.9703 N.am      11 UNK        -0.7361 
     68 O          33.6267    2.7055   -4.1798 O.2       11 UNK        -0.4986 
     69 C69        34.3114   -0.0666   -4.8147 C.3       12 UNK        -0.0947 
     70 S70        32.9043   -1.0060   -4.1289 S.3       12 UNK        -0.2240 
     71 C71        33.4928   -2.7133   -4.3493 C.3       12 UNK         0.0194 
     72 H72        29.2237    0.4243   -0.4874 H         1 UNK         0.0906 
     73 H73        29.7736    0.8910   -2.0980 H         1 UNK         0.0906 
     74 H74        28.2056    1.4482   -1.5001 H         1 UNK         0.0906 
     75 H75        28.8643   -1.7783   -0.5814 H         1 UNK         0.3140 
     76 H76        28.3209   -3.3150   -2.8070 H         1 UNK         0.1085 
     77 H77        27.5155   -4.1682    0.0190 H         1 UNK         0.0836 
     78 H78        28.0011   -5.1832   -1.3039 H         1 UNK         0.0836 
     79 H79        30.1300   -6.3638   -1.1073 H         1 UNK         0.0731 
     80 H80        31.6621   -5.6957   -0.6075 H         1 UNK         0.0731 
     81 H81        32.7240   -3.8059   -1.9626 H         1 UNK         0.1312 
     82 H82        31.7580   -3.7758   -6.1351 H         1 UNK         0.1406 
     83 H83        29.3636   -6.0545   -3.4057 H         1 UNK         0.1631 
     84 H84        29.2690   -6.3815   -5.9808 H         1 UNK         0.0717 
     85 H85        29.9903   -5.1547   -6.9959 H         1 UNK         0.0717 
     86 H86        28.7029   -2.2839   -4.8789 H         1 UNK         0.0934 
     87 H87        29.6517   -2.6376   -6.2949 H         1 UNK         0.0934 
     88 H88        27.7619   -2.0747   -7.7773 H         1 UNK         0.0739 
     89 H89        26.2080   -1.9250   -5.3634 H         1 UNK         0.3093 
     90 H90        23.3988   -0.3500   -6.9737 H         1 UNK         0.0818 
     91 H91        23.3020   -2.8040   -7.4929 H         1 UNK         0.0819 
     92 H92        23.8687   -3.1738   -5.8687 H         1 UNK         0.0819 
     93 H93        22.3048   -2.3949   -6.1062 H         1 UNK         0.0819 
     94 H94        23.5680   -1.1827   -4.3197 H         1 UNK         0.3041 
     95 H95        25.2687    1.5036   -2.8425 H         1 UNK         0.0784 
     96 H96        23.1368    2.6596   -3.3321 H         1 UNK         0.0793 
     97 H97        22.2210    1.2053   -2.9739 H         1 UNK         0.0793 
     98 H98        23.1211    2.0217   -1.6957 H         1 UNK         0.0793 
     99 H99        25.3658   -0.3425   -1.6878 H         1 UNK         0.3024 
    100 H100       23.8498   -2.0628   -0.0795 H         1 UNK         0.1171 
    101 H101       23.6851   -4.5173   -0.5929 H         1 UNK         0.0786 
    102 H102       22.2769   -3.6254   -1.1424 H         1 UNK         0.0786 
    103 H103       23.4881   -4.1409   -2.3043 H         1 UNK         0.0786 
    104 H104       26.0395   -2.3871   -0.2416 H         1 UNK         0.2977 
    105 H105       27.5397    0.3404   -5.1501 H         1 UNK         0.3127 
    106 H106       29.5996    2.0688   -6.1279 H         1 UNK         0.0770 
    107 H107       27.1416    2.6737   -4.4025 H         1 UNK         0.0814 
    108 H108       28.4689    3.7891   -4.6927 H         1 UNK         0.0814 
    109 H109       28.7657    2.2886   -3.8362 H         1 UNK         0.0814 
    110 H110       26.0528    1.9756   -6.7360 H         1 UNK         0.2983 
    111 H111       25.9383    4.1559   -8.5453 H         1 UNK         0.0947 
    112 H112       23.7453    3.1643   -9.2033 H         1 UNK         0.0806 
    113 H113       23.9345    3.1658   -7.4562 H         1 UNK         0.0806 
    114 H114       24.1482    1.6723   -8.3653 H         1 UNK         0.0806 
    115 H115       26.6055    0.6967   -9.1304 H         1 UNK         0.3000 
    116 H116       26.9387    0.9312  -11.9863 H         1 UNK         0.0850 
    117 H117       27.8509   -1.3697  -11.7730 H         1 UNK         0.0810 
    118 H118       26.3792   -1.2169  -10.8274 H         1 UNK         0.0810 
    119 H119       27.9504   -1.1993  -10.0272 H         1 UNK         0.0810 
    120 H120       28.8619    2.1470   -9.4986 H         1 UNK         0.3040 
    121 H121       30.8479    3.0312   -9.2858 H         1 UNK         0.0766 
    122 H122       31.1269    2.9337  -12.3322 H         1 UNK         0.0812 
    123 H123       32.0179    3.9694  -11.2287 H         1 UNK         0.0812 
    124 H124       30.2894    4.1969  -11.4304 H         1 UNK         0.0812 
    125 H125       30.6746    0.2013   -8.9447 H         1 UNK         0.3205 
    126 H126       33.1213   -1.0158   -9.9526 H         1 UNK         0.0754 
    127 H127       32.5149   -2.8635   -8.4292 H         1 UNK         0.0769 
    128 H128       31.0943   -2.3600   -9.3350 H         1 UNK         0.0769 
    129 H129       31.2916   -1.8676   -7.6537 H         1 UNK         0.0769 
    130 H130       32.1227    0.6285   -6.9530 H         1 UNK         0.2981 
    131 H131       34.8287    1.3598   -6.3201 H         1 UNK         0.0541 
    132 H132       32.1189    2.7028   -6.9125 H         1 UNK         0.3459 
    133 H133       31.9732    3.7987   -5.5674 H         1 UNK         0.3459 
    134 H134       34.8557    0.3942   -3.9890 H         1 UNK         0.0612 
    135 H135       35.0199   -0.7626   -5.2654 H         1 UNK         0.0612 
    136 H136       34.3325   -2.8993   -3.6779 H         1 UNK         0.0624 
    137 H137       33.8678   -2.8434   -5.3660 H         1 UNK         0.0624 
@<TRIPOS>BOND
     1    1    2 1    
     2    1   72 1    
     3    1   73 1    
     4    1   74 1    
     5    2    3 2    
     6    2    4 am   BACKBONE|DICT|INTERRES
     7    4    5 1    
     8    4   75 1    
     9    5    6 1    
    10    5   35 1    
    11    5   76 1    
    12    6    7 1    
    13    6   77 1    
    14    6   78 1    
    15    7    8 1    
    16    8    9 1    
    17    8   79 1    
    18    8   80 1    
    19    9   10 ar   
    20    9   14 ar   
    21   10   11 ar   
    22   10   81 1    
    23   11   12 ar   
    24   11   71 1    
    25   12   13 ar   
    26   12   82 1    
    27   13   14 ar   
    28   13   15 1    
    29   14   83 1    
    30   15   16 1    
    31   15   84 1    
    32   15   85 1    
    33   16   17 1    
    34   17   18 1    
    35   17   86 1    
    36   17   87 1    
    37   18   19 1    
    38   18   37 1    
    39   18   88 1    
    40   19   20 am   BACKBONE|DICT|INTERRES
    41   19   89 1    
    42   20   21 2    
    43   20   22 1    
    44   22   23 1    
    45   22   24 1    
    46   22   90 1    
    47   23   91 1    
    48   23   92 1    
    49   23   93 1    
    50   24   25 am   BACKBONE|DICT|INTERRES
    51   24   94 1    
    52   25   26 2    
    53   25   27 1    
    54   27   28 1    
    55   27   29 1    
    56   27   95 1    
    57   28   96 1    
    58   28   97 1    
    59   28   98 1    
    60   29   30 am   BACKBONE|DICT|INTERRES
    61   29   99 1    
    62   30   31 2    
    63   30   32 1    
    64   32   33 1    
    65   32   34 1    
    66   32  100 1    
    67   33  101 1    
    68   33  102 1    
    69   33  103 1    
    70   34   35 am   BACKBONE|DICT|INTERRES
    71   34  104 1    
    72   35   36 2    
    73   37   38 2    
    74   37   39 am   BACKBONE|DICT|INTERRES
    75   39   40 1    
    76   39  105 1    
    77   40   41 1    
    78   40   42 1    
    79   40  106 1    
    80   41  107 1    
    81   41  108 1    
    82   41  109 1    
    83   42   43 2    
    84   42   44 am   BACKBONE|DICT|INTERRES
    85   44   45 1    
    86   44  110 1    
    87   45   46 1    
    88   45   47 1    
    89   45  111 1    
    90   46  112 1    
    91   46  113 1    
    92   46  114 1    
    93   47   48 2    
    94   47   49 am   BACKBONE|DICT|INTERRES
    95   49   50 1    
    96   49  115 1    
    97   50   51 1    
    98   50   52 1    
    99   50  116 1    
   100   51  117 1    
   101   51  118 1    
   102   51  119 1    
   103   52   53 2    
   104   52   54 am   BACKBONE|DICT|INTERRES
   105   54   55 1    
   106   54  120 1    
   107   55   56 1    
   108   55   57 1    
   109   55  121 1    
   110   56  122 1    
   111   56  123 1    
   112   56  124 1    
   113   57   58 2    
   114   57   59 am   BACKBONE|DICT|INTERRES
   115   59   60 1    
   116   59  125 1    
   117   60   61 1    
   118   60   62 1    
   119   60  126 1    
   120   61  127 1    
   121   61  128 1    
   122   61  129 1    
   123   62   63 2    
   124   62   64 am   BACKBONE|DICT|INTERRES
   125   64   65 1    
   126   64  130 1    
   127   65   66 1    
   128   65   69 1    
   129   65  131 1    
   130   66   67 am   BACKBONE|DICT|INTERRES
   131   66   68 2    
   132   67  132 1    
   133   67  133 1    
   134   69   70 1    
   135   69  134 1    
   136   69  135 1    
   137   70   71 1    
   138   71  136 1    
   139   71  137 1    
@<TRIPOS>SUBSTRUCTURE
     1 UNK         1 GROUP             0       ****    0 ROOT    
