@<TRIPOS>MOLECULE
3R137
137   139    1
SMALL
USER_CHARGES


@<TRIPOS>ATOM
      1 CA         25.4790   -6.5979   -3.9105 C.3       0 UNK        -0.2020 
      2 C          25.7832   -5.6502   -2.7607 C.2       0 UNK         0.4855 
      3 O          24.8592   -5.1559   -2.1141 O.2       0 UNK        -0.5197 
      4 N          27.0721   -5.3813   -2.5124 N.am      1 UNK        -0.4892 
      5 CA         27.5832   -4.4773   -1.4748 C.3       1 UNK         0.0835 
      6 C6         29.1304   -4.5138   -1.4428 C.3       12 UNK        -0.0855 
      7 S7         29.8203   -3.7887    0.0814 S.3       12 UNK        -0.2931 
      8 C8         31.4351   -3.1820   -0.5089 C.3       12 UNK         0.0378 
      9 C9         31.3032   -2.0290   -1.4964 C.ar      12 UNK        -0.0802 
     10 C10        31.7631   -2.1642   -2.8101 C.ar      12 UNK        -0.0944 
     11 C11        31.6575   -1.1015   -3.7137 C.ar      12 UNK        -0.0787 
     12 C12        31.1006    0.1079   -3.2874 C.ar      12 UNK        -0.0862 
     13 C13        30.6260    0.2549   -1.9784 C.ar      12 UNK        -0.0733 
     14 C14        30.7380   -0.8176   -1.0888 C.ar      12 UNK        -0.0832 
     15 C15        30.0102    1.5651   -1.4911 C.3       12 UNK         0.0240 
     16 S16        28.9447    2.4061   -2.7118 S.3       12 UNK        -0.2522 
     17 C17        27.7217    1.1155   -3.1278 C.3       12 UNK        -0.0967 
     18 CA         27.7446    0.7555   -4.6371 C.3       5 UNK         0.0660 
     19 N          27.3377   -0.6368   -4.8632 N.am      5 UNK        -0.4015 
     20 C          27.2791   -1.2747   -6.0424 C.2       4 UNK         0.4946 
     21 O          27.5935   -0.7632   -7.1165 O.2       4 UNK        -0.5353 
     22 CA         26.6905   -2.6950   -6.0276 C.3       4 UNK         0.0277 
     23 CB         27.7710   -3.7445   -5.7268 C.3       4 UNK        -0.1981 
     24 N          25.6003   -2.8105   -5.0554 N.am      4 UNK        -0.4209 
     25 C          24.3593   -2.3413   -5.2539 C.2       3 UNK         0.4942 
     26 O          23.9810   -1.8478   -6.3152 O.2       3 UNK        -0.5208 
     27 CA         23.3783   -2.4042   -4.0699 C.3       3 UNK         0.0250 
     28 CB         22.5069   -3.6677   -4.1492 C.3       3 UNK        -0.1990 
     29 N          24.0565   -2.3475   -2.7717 N.am      3 UNK        -0.4232 
     30 C          24.5698   -1.2229   -2.2484 C.2       2 UNK         0.4993 
     31 O          24.4649   -0.1166   -2.7779 O.2       2 UNK        -0.5286 
     32 CA         25.3760   -1.3524   -0.9411 C.3       2 UNK         0.0209 
     33 CB         24.4588   -1.1657    0.2776 C.3       2 UNK        -0.1931 
     34 N          26.1019   -2.6218   -0.8163 N.am      2 UNK        -0.4546 
     35 C          27.0356   -3.0485   -1.6778 C.2       1 UNK         0.5154 
     36 O          27.4019   -2.3913   -2.6526 O.2       1 UNK        -0.5181 
     37 C          26.9462    1.7880   -5.4673 C.2       5 UNK         0.5014 
     38 O          27.4722    2.8630   -5.7557 O.2       5 UNK        -0.5248 
     39 N          25.7200    1.4433   -5.8905 N.am      6 UNK        -0.4434 
     40 CA         24.8982    2.2319   -6.8150 C.3       6 UNK         0.0363 
     41 CB         23.5233    1.5632   -6.9663 C.3       6 UNK        -0.1936 
     42 C          25.5447    2.4541   -8.1992 C.2       6 UNK         0.5081 
     43 O          25.2135    3.4389   -8.8594 O.2       6 UNK        -0.5248 
     44 N          26.4672    1.5684   -8.6050 N.am      7 UNK        -0.4718 
     45 CA         27.2842    1.7073   -9.8146 C.3       7 UNK         0.0273 
     46 CB         27.5819    0.3066  -10.3715 C.3       7 UNK        -0.1935 
     47 C          28.5922    2.4875   -9.5696 C.2       7 UNK         0.5018 
     48 O          29.3871    2.6228  -10.5016 O.2       7 UNK        -0.5186 
     49 N          28.8101    2.9760   -8.3382 N.am      8 UNK        -0.4240 
     50 CA         29.9888    3.7095   -7.8705 C.3       8 UNK         0.0235 
     51 CB         30.0440    5.1145   -8.5151 C.3       8 UNK        -0.2000 
     52 C          31.2744    2.8763   -8.0319 C.2       8 UNK         0.4941 
     53 O          31.2848    1.7072   -7.6422 O.2       8 UNK        -0.5273 
     54 N          32.3257    3.4766   -8.6067 N.am      9 UNK        -0.4262 
     55 CA         33.6450    2.8726   -8.8163 C.3       9 UNK         0.0264 
     56 CB         34.6120    3.9486   -9.3374 C.3       9 UNK        -0.1955 
     57 C          33.6557    1.6453   -9.7470 C.2       9 UNK         0.5031 
     58 O          34.5904    0.8473   -9.6603 O.2       9 UNK        -0.5390 
     59 N          32.6376    1.5022  -10.6097 N.am      10 UNK        -0.4204 
     60 CA         32.4585    0.3283  -11.4691 C.3       10 UNK         0.0237 
     61 CB         31.4403    0.6439  -12.5764 C.3       10 UNK        -0.1985 
     62 C          32.0339   -0.9235  -10.6801 C.2       10 UNK         0.4970 
     63 O          32.4126   -2.0287  -11.0700 O.2       10 UNK        -0.4914 
     64 N          31.2837   -0.7220   -9.5866 N.am      11 UNK        -0.4285 
     65 CA         30.7844   -1.7535   -8.6674 C.3       11 UNK         0.1007 
     66 C          29.9261   -2.8633   -9.3561 C.2       11 UNK         0.5703 
     67 N          29.8634   -4.0671   -8.8020 N.am      11 UNK        -0.7361 
     68 O          29.2811   -2.6336  -10.3772 O.2       11 UNK        -0.4986 
     69 C69        31.9197   -2.2844   -7.7401 C.3       12 UNK        -0.0947 
     70 S70        31.3242   -2.5843   -6.0420 S.3       12 UNK        -0.2240 
     71 C71        32.1668   -1.2447   -5.1420 C.3       12 UNK         0.0194 
     72 H72        26.3768   -7.0946   -4.2777 H         1 UNK         0.0906 
     73 H73        24.7772   -7.3664   -3.5875 H         1 UNK         0.0906 
     74 H74        25.0295   -6.0521   -4.7395 H         1 UNK         0.0906 
     75 H75        27.7784   -5.8125   -3.0913 H         1 UNK         0.3140 
     76 H76        27.2159   -4.8568   -0.5187 H         1 UNK         0.1085 
     77 H77        29.4811   -5.5462   -1.4871 H         1 UNK         0.0836 
     78 H78        29.5456   -4.0200   -2.3235 H         1 UNK         0.0836 
     79 H79        31.9885   -4.0131   -0.9494 H         1 UNK         0.0731 
     80 H80        32.0197   -2.8466    0.3489 H         1 UNK         0.0731 
     81 H81        32.2031   -3.0971   -3.1353 H         1 UNK         0.1312 
     82 H82        31.0334    0.9369   -3.9784 H         1 UNK         0.1406 
     83 H83        30.3836   -0.7153   -0.0719 H         1 UNK         0.1631 
     84 H84        30.8159    2.2430   -1.2071 H         1 UNK         0.0717 
     85 H85        29.4186    1.3947   -0.5902 H         1 UNK         0.0717 
     86 H86        27.9406    0.2328   -2.5261 H         1 UNK         0.0934 
     87 H87        26.7308    1.4436   -2.8076 H         1 UNK         0.0934 
     88 H88        28.7753    0.8066   -4.9936 H         1 UNK         0.0739 
     89 H89        27.1569   -1.1874   -4.0268 H         1 UNK         0.3093 
     90 H90        26.2920   -2.9002   -7.0238 H         1 UNK         0.0818 
     91 H91        28.2607   -3.5744   -4.7684 H         1 UNK         0.0819 
     92 H92        27.3586   -4.7530   -5.7245 H         1 UNK         0.0819 
     93 H93        28.5479   -3.7170   -6.4878 H         1 UNK         0.0819 
     94 H94        25.8517   -3.1384   -4.1333 H         1 UNK         0.3041 
     95 H95        22.7166   -1.5386   -4.1489 H         1 UNK         0.0784 
     96 H96        21.9506   -3.6973   -5.0872 H         1 UNK         0.0793 
     97 H97        23.1019   -4.5788   -4.0968 H         1 UNK         0.0793 
     98 H98        21.7773   -3.6974   -3.3398 H         1 UNK         0.0793 
     99 H99        24.2107   -3.2317   -2.2948 H         1 UNK         0.3024 
    100 H100       26.1159   -0.5492   -0.9380 H         1 UNK         0.1171 
    101 H101       23.9231   -0.2169    0.2207 H         1 UNK         0.0786 
    102 H102       25.0292   -1.1578    1.2066 H         1 UNK         0.0786 
    103 H103       23.7123   -1.9580    0.3471 H         1 UNK         0.0786 
    104 H104       25.8174   -3.2340   -0.0647 H         1 UNK         0.2977 
    105 H105       25.3523    0.5447   -5.6112 H         1 UNK         0.3127 
    106 H106       24.7527    3.2153   -6.3632 H         1 UNK         0.0770 
    107 H107       23.6032    0.5825   -7.4366 H         1 UNK         0.0814 
    108 H108       22.8626    2.1684   -7.5886 H         1 UNK         0.0814 
    109 H109       23.0320    1.4351   -6.0015 H         1 UNK         0.0814 
    110 H110       26.7018    0.7843   -8.0007 H         1 UNK         0.2983 
    111 H111       26.7220    2.2576  -10.5720 H         1 UNK         0.0947 
    112 H112       28.1274    0.3617  -11.3142 H         1 UNK         0.0806 
    113 H113       26.6652   -0.2516  -10.5611 H         1 UNK         0.0806 
    114 H114       28.1893   -0.2739   -9.6783 H         1 UNK         0.0806 
    115 H115       28.1182    2.7929   -7.6181 H         1 UNK         0.3000 
    116 H116       29.8550    3.8445   -6.7961 H         1 UNK         0.0850 
    117 H117       30.8349    5.7242   -8.0764 H         1 UNK         0.0810 
    118 H118       29.1092    5.6515   -8.3525 H         1 UNK         0.0810 
    119 H119       30.2104    5.0695   -9.5922 H         1 UNK         0.0810 
    120 H120       32.2159    4.4337   -8.9097 H         1 UNK         0.3040 
    121 H121       34.0044    2.5343   -7.8422 H         1 UNK         0.0766 
    122 H122       34.6976    4.7802   -8.6375 H         1 UNK         0.0812 
    123 H123       34.2904    4.3489  -10.2998 H         1 UNK         0.0812 
    124 H124       35.6145    3.5402   -9.4737 H         1 UNK         0.0812 
    125 H125       31.8990    2.1937  -10.6138 H         1 UNK         0.3205 
    126 H126       33.4160    0.1082  -11.9466 H         1 UNK         0.0754 
    127 H127       31.3381   -0.1991  -13.2612 H         1 UNK         0.0769 
    128 H128       31.7490    1.5061  -13.1677 H         1 UNK         0.0769 
    129 H129       30.4506    0.8516  -12.1699 H         1 UNK         0.0769 
    130 H130       31.0610    0.2283   -9.3209 H         1 UNK         0.2981 
    131 H131       30.0742   -1.2054   -8.0482 H         1 UNK         0.0541 
    132 H132       30.3762   -4.2672   -7.9576 H         1 UNK         0.3459 
    133 H133       29.3039   -4.7817   -9.2392 H         1 UNK         0.3459 
    134 H134       32.7367   -1.5625   -7.6881 H         1 UNK         0.0612 
    135 H135       32.3727   -3.1942   -8.1372 H         1 UNK         0.0612 
    136 H136       33.2395   -1.4415   -5.1248 H         1 UNK         0.0624 
    137 H137       32.0273   -0.3121   -5.6920 H         1 UNK         0.0624 
@<TRIPOS>BOND
     1    1    2 1    
     2    1   72 1    
     3    1   73 1    
     4    1   74 1    
     5    2    3 2    
     6    2    4 am   BACKBONE|DICT|INTERRES
     7    4    5 1    
     8    4   75 1    
     9    5    6 1    
    10    5   35 1    
    11    5   76 1    
    12    6    7 1    
    13    6   77 1    
    14    6   78 1    
    15    7    8 1    
    16    8    9 1    
    17    8   79 1    
    18    8   80 1    
    19    9   10 ar   
    20    9   14 ar   
    21   10   11 ar   
    22   10   81 1    
    23   11   12 ar   
    24   11   71 1    
    25   12   13 ar   
    26   12   82 1    
    27   13   14 ar   
    28   13   15 1    
    29   14   83 1    
    30   15   16 1    
    31   15   84 1    
    32   15   85 1    
    33   16   17 1    
    34   17   18 1    
    35   17   86 1    
    36   17   87 1    
    37   18   19 1    
    38   18   37 1    
    39   18   88 1    
    40   19   20 am   BACKBONE|DICT|INTERRES
    41   19   89 1    
    42   20   21 2    
    43   20   22 1    
    44   22   23 1    
    45   22   24 1    
    46   22   90 1    
    47   23   91 1    
    48   23   92 1    
    49   23   93 1    
    50   24   25 am   BACKBONE|DICT|INTERRES
    51   24   94 1    
    52   25   26 2    
    53   25   27 1    
    54   27   28 1    
    55   27   29 1    
    56   27   95 1    
    57   28   96 1    
    58   28   97 1    
    59   28   98 1    
    60   29   30 am   BACKBONE|DICT|INTERRES
    61   29   99 1    
    62   30   31 2    
    63   30   32 1    
    64   32   33 1    
    65   32   34 1    
    66   32  100 1    
    67   33  101 1    
    68   33  102 1    
    69   33  103 1    
    70   34   35 am   BACKBONE|DICT|INTERRES
    71   34  104 1    
    72   35   36 2    
    73   37   38 2    
    74   37   39 am   BACKBONE|DICT|INTERRES
    75   39   40 1    
    76   39  105 1    
    77   40   41 1    
    78   40   42 1    
    79   40  106 1    
    80   41  107 1    
    81   41  108 1    
    82   41  109 1    
    83   42   43 2    
    84   42   44 am   BACKBONE|DICT|INTERRES
    85   44   45 1    
    86   44  110 1    
    87   45   46 1    
    88   45   47 1    
    89   45  111 1    
    90   46  112 1    
    91   46  113 1    
    92   46  114 1    
    93   47   48 2    
    94   47   49 am   BACKBONE|DICT|INTERRES
    95   49   50 1    
    96   49  115 1    
    97   50   51 1    
    98   50   52 1    
    99   50  116 1    
   100   51  117 1    
   101   51  118 1    
   102   51  119 1    
   103   52   53 2    
   104   52   54 am   BACKBONE|DICT|INTERRES
   105   54   55 1    
   106   54  120 1    
   107   55   56 1    
   108   55   57 1    
   109   55  121 1    
   110   56  122 1    
   111   56  123 1    
   112   56  124 1    
   113   57   58 2    
   114   57   59 am   BACKBONE|DICT|INTERRES
   115   59   60 1    
   116   59  125 1    
   117   60   61 1    
   118   60   62 1    
   119   60  126 1    
   120   61  127 1    
   121   61  128 1    
   122   61  129 1    
   123   62   63 2    
   124   62   64 am   BACKBONE|DICT|INTERRES
   125   64   65 1    
   126   64  130 1    
   127   65   66 1    
   128   65   69 1    
   129   65  131 1    
   130   66   67 am   BACKBONE|DICT|INTERRES
   131   66   68 2    
   132   67  132 1    
   133   67  133 1    
   134   69   70 1    
   135   69  134 1    
   136   69  135 1    
   137   70   71 1    
   138   71  136 1    
   139   71  137 1    
@<TRIPOS>SUBSTRUCTURE
     1 UNK         1 GROUP             0       ****    0 ROOT    
