@<TRIPOS>MOLECULE
3R137
137   139    1
SMALL
USER_CHARGES


@<TRIPOS>ATOM
      1 CA         25.2170   -5.6162   -7.5876 C.3       0 UNK        -0.2020 
      2 C          24.4558   -5.4315   -6.2830 C.2       0 UNK         0.4855 
      3 O          23.2950   -5.8319   -6.1876 O.2       0 UNK        -0.5197 
      4 N          25.1057   -4.8383   -5.2756 N.am      1 UNK        -0.4892 
      5 CA         24.5164   -4.4887   -3.9803 C.3       1 UNK         0.0835 
      6 C6         25.5980   -4.3754   -2.8706 C.3       12 UNK        -0.0855 
      7 S7         27.0447   -3.3382   -3.2959 S.3       12 UNK        -0.2931 
      8 C8         28.3106   -4.6231   -3.5446 C.3       12 UNK         0.0378 
      9 C9         29.6773   -4.0064   -3.7877 C.ar      12 UNK        -0.0802 
     10 C10        30.1589   -3.8307   -5.0883 C.ar      12 UNK        -0.0944 
     11 C11        31.4149   -3.2558   -5.3065 C.ar      12 UNK        -0.0787 
     12 C12        32.1876   -2.8505   -4.2128 C.ar      12 UNK        -0.0862 
     13 C13        31.7057   -3.0023   -2.9087 C.ar      12 UNK        -0.0733 
     14 C14        30.4602   -3.6038   -2.7029 C.ar      12 UNK        -0.0832 
     15 C15        32.5011   -2.4686   -1.7248 C.3       12 UNK         0.0240 
     16 S16        31.5678   -1.2080   -0.7894 S.3       12 UNK        -0.2522 
     17 C17        31.4211    0.1588   -1.9960 C.3       12 UNK        -0.0967 
     18 CA         30.2088    0.0216   -2.9621 C.3       5 UNK         0.0660 
     19 N          28.9326   -0.2685   -2.3047 N.am      5 UNK        -0.4015 
     20 C          28.2359    0.5427   -1.5015 C.2       4 UNK         0.4946 
     21 O          28.5878    1.6768   -1.1698 O.2       4 UNK        -0.5353 
     22 CA         26.8837   -0.0136   -1.0216 C.3       4 UNK         0.0277 
     23 CB         26.6773    0.2388    0.4820 C.3       4 UNK        -0.1981 
     24 N          25.7392    0.5280   -1.7615 N.am      4 UNK        -0.4209 
     25 C          25.5918    0.5790   -3.0934 C.2       3 UNK         0.4942 
     26 O          26.4402    0.2050   -3.9062 O.2       3 UNK        -0.5208 
     27 CA         24.2244    1.0660   -3.5920 C.3       3 UNK         0.0250 
     28 CB         24.2937    1.6996   -4.9922 C.3       3 UNK        -0.1990 
     29 N          23.3323   -0.0862   -3.6403 N.am      3 UNK        -0.4232 
     30 C          22.6000   -0.5418   -2.6195 C.2       2 UNK         0.4993 
     31 O          22.5057    0.0339   -1.5347 O.2       2 UNK        -0.5286 
     32 CA         21.8776   -1.8834   -2.8317 C.3       2 UNK         0.0209 
     33 CB         20.8046   -1.7904   -3.9365 C.3       2 UNK        -0.1931 
     34 N          22.7958   -3.0128   -3.0517 N.am      2 UNK        -0.4546 
     35 C          23.6347   -3.2238   -4.0788 C.2       1 UNK         0.5154 
     36 O          23.7306   -2.4701   -5.0521 O.2       1 UNK        -0.5181 
     37 C          30.1178    1.1642   -3.9962 C.2       5 UNK         0.5014 
     38 O          31.0974    1.8819   -4.2018 O.2       5 UNK        -0.5248 
     39 N          28.9663    1.2816   -4.6699 N.am      6 UNK        -0.4434 
     40 CA         28.7555    2.1565   -5.8257 C.3       6 UNK         0.0363 
     41 CB         28.0795    3.4573   -5.3594 C.3       6 UNK        -0.1936 
     42 C          27.9528    1.4598   -6.9415 C.2       6 UNK         0.5081 
     43 O          27.6755    2.0949   -7.9585 O.2       6 UNK        -0.5248 
     44 N          27.5972    0.1796   -6.7498 N.am      7 UNK        -0.4718 
     45 CA         26.6619   -0.6064   -7.5634 C.3       7 UNK         0.0273 
     46 CB         26.5744   -2.0251   -6.9810 C.3       7 UNK        -0.1935 
     47 C          26.9607   -0.6627   -9.0700 C.2       7 UNK         0.5018 
     48 O          26.0230   -0.6217   -9.8675 O.2       7 UNK        -0.5186 
     49 N          28.2471   -0.7437   -9.4293 N.am      8 UNK        -0.4240 
     50 CA         28.7211   -0.7611  -10.8163 C.3       8 UNK         0.0235 
     51 CB         29.6550   -1.9707  -11.0086 C.3       8 UNK        -0.2000 
     52 C          29.4259    0.5497  -11.2076 C.2       8 UNK         0.4941 
     53 O          30.0989    0.5717  -12.2395 O.2       8 UNK        -0.5273 
     54 N          29.3190    1.6014  -10.3766 N.am      9 UNK        -0.4262 
     55 CA         29.9871    2.9133  -10.4555 C.3       9 UNK         0.0264 
     56 CB         29.5964    3.6807  -11.7333 C.3       9 UNK        -0.1955 
     57 C          31.5174    2.8509  -10.2842 C.2       9 UNK         0.5031 
     58 O          32.0683    3.5926   -9.4696 O.2       9 UNK        -0.5390 
     59 N          32.1691    1.9267  -11.0017 N.am      10 UNK        -0.4204 
     60 CA         33.5947    1.5897  -10.9214 C.3       10 UNK         0.0237 
     61 CB         33.9315    0.5980  -12.0472 C.3       10 UNK        -0.1985 
     62 C          34.0351    1.0253   -9.5557 C.2       10 UNK         0.4970 
     63 O          35.2362    0.9736   -9.2888 O.2       10 UNK        -0.4914 
     64 N          33.0668    0.6320   -8.7176 N.am      11 UNK        -0.4285 
     65 CA         33.2458    0.2600   -7.3079 C.3       11 UNK         0.1007 
     66 C          33.8412    1.3893   -6.4145 C.2       11 UNK         0.5703 
     67 N          33.7084    2.6614   -6.7780 N.am      11 UNK        -0.7361 
     68 O          34.4435    1.0992   -5.3838 O.2       11 UNK        -0.4986 
     69 C69        31.9194   -0.2483   -6.6879 C.3       12 UNK        -0.0947 
     70 S70        31.1688   -1.6548   -7.5681 S.3       12 UNK        -0.2240 
     71 C71        31.9355   -3.0751   -6.7256 C.3       12 UNK         0.0194 
     72 H72        26.2534   -5.2886   -7.5061 H         1 UNK         0.0906 
     73 H73        25.2169   -6.6667   -7.8773 H         1 UNK         0.0906 
     74 H74        24.7410   -5.0431   -8.3829 H         1 UNK         0.0906 
     75 H75        26.0388   -4.4808   -5.4188 H         1 UNK         0.3140 
     76 H76        23.8460   -5.3033   -3.6956 H         1 UNK         0.1085 
     77 H77        25.1700   -3.9940   -1.9418 H         1 UNK         0.0836 
     78 H78        25.9465   -5.3788   -2.6214 H         1 UNK         0.0836 
     79 H79        28.3546   -5.2685   -2.6657 H         1 UNK         0.0731 
     80 H80        28.0257   -5.2615   -4.3823 H         1 UNK         0.0731 
     81 H81        29.5563   -4.1360   -5.9328 H         1 UNK         0.1312 
     82 H82        33.1520   -2.3900   -4.3794 H         1 UNK         0.1406 
     83 H83        30.0829   -3.7213   -1.6957 H         1 UNK         0.1631 
     84 H84        33.4529   -2.0437   -2.0476 H         1 UNK         0.0717 
     85 H85        32.7425   -3.2971   -1.0577 H         1 UNK         0.0717 
     86 H86        31.3452    1.0919   -1.4349 H         1 UNK         0.0934 
     87 H87        32.3540    0.2231   -2.5599 H         1 UNK         0.0934 
     88 H88        30.3875   -0.8488   -3.5878 H         1 UNK         0.0739 
     89 H89        28.5214   -1.1610   -2.5450 H         1 UNK         0.3093 
     90 H90        26.8808   -1.0946   -1.1755 H         1 UNK         0.0818 
     91 H91        25.7745   -0.2508    0.8479 H         1 UNK         0.0819 
     92 H92        27.5146   -0.1532    1.0612 H         1 UNK         0.0819 
     93 H93        26.5969    1.3034    0.7057 H         1 UNK         0.0819 
     94 H94        24.9566    0.8311   -1.1984 H         1 UNK         0.3041 
     95 H95        23.8365    1.8159   -2.8990 H         1 UNK         0.0784 
     96 H96        24.9383    2.5775   -4.9927 H         1 UNK         0.0793 
     97 H97        24.6841    1.0033   -5.7332 H         1 UNK         0.0793 
     98 H98        23.3084    2.0232   -5.3276 H         1 UNK         0.0793 
     99 H99        23.4424   -0.7131   -4.4347 H         1 UNK         0.3024 
    100 H100       21.3558   -2.1005   -1.8976 H         1 UNK         0.1171 
    101 H101       20.0925   -0.9933   -3.7188 H         1 UNK         0.0786 
    102 H102       20.2374   -2.7179   -4.0136 H         1 UNK         0.0786 
    103 H103       21.2328   -1.5805   -4.9169 H         1 UNK         0.0786 
    104 H104       22.8116   -3.6851   -2.2967 H         1 UNK         0.2977 
    105 H105       28.1555    0.7426   -4.3665 H         1 UNK         0.3127 
    106 H106       29.7164    2.4177   -6.2738 H         1 UNK         0.0770 
    107 H107       27.1386    3.2587   -4.8482 H         1 UNK         0.0814 
    108 H108       27.8674    4.1198   -6.1996 H         1 UNK         0.0814 
    109 H109       28.7213    4.0061   -4.6701 H         1 UNK         0.0814 
    110 H110       27.8747   -0.2565   -5.8834 H         1 UNK         0.2983 
    111 H111       25.6815   -0.1398   -7.4590 H         1 UNK         0.0947 
    112 H112       25.8442   -2.6249   -7.5254 H         1 UNK         0.0806 
    113 H113       26.2552   -1.9996   -5.9390 H         1 UNK         0.0806 
    114 H114       27.5327   -2.5438   -7.0272 H         1 UNK         0.0806 
    115 H115       28.9494   -0.7841   -8.7027 H         1 UNK         0.3000 
    116 H116       27.8818   -0.8782  -11.5049 H         1 UNK         0.0850 
    117 H117       29.9205   -2.0966  -12.0590 H         1 UNK         0.0810 
    118 H118       30.5858   -1.8587  -10.4527 H         1 UNK         0.0810 
    119 H119       29.1792   -2.8967  -10.6851 H         1 UNK         0.0810 
    120 H120       28.7091    1.5006   -9.5696 H         1 UNK         0.3040 
    121 H121       29.6041    3.4833   -9.6071 H         1 UNK         0.0766 
    122 H122       28.5145    3.7843  -11.8160 H         1 UNK         0.0812 
    123 H123       29.9555    3.1883  -12.6373 H         1 UNK         0.0812 
    124 H124       30.0182    4.6865  -11.7252 H         1 UNK         0.0812 
    125 H125       31.5970    1.3633  -11.6309 H         1 UNK         0.3205 
    126 H126       34.1610    2.5083  -11.0869 H         1 UNK         0.0754 
    127 H127       34.9926    0.3443  -12.0434 H         1 UNK         0.0769 
    128 H128       33.7045    1.0185  -13.0272 H         1 UNK         0.0769 
    129 H129       33.3718   -0.3327  -11.9440 H         1 UNK         0.0769 
    130 H130       32.1134    0.6899   -9.0366 H         1 UNK         0.2981 
    131 H131       33.9636   -0.5618   -7.2866 H         1 UNK         0.0541 
    132 H132       33.2136    2.9116   -7.6237 H         1 UNK         0.3459 
    133 H133       34.0966    3.3817   -6.1906 H         1 UNK         0.3459 
    134 H134       31.1841    0.5559   -6.6949 H         1 UNK         0.0612 
    135 H135       32.0607   -0.5155   -5.6411 H         1 UNK         0.0612 
    136 H136       33.0200   -2.9557   -6.7299 H         1 UNK         0.0624 
    137 H137       31.7265   -3.9767   -7.3031 H         1 UNK         0.0624 
@<TRIPOS>BOND
     1    1    2 1    
     2    1   72 1    
     3    1   73 1    
     4    1   74 1    
     5    2    3 2    
     6    2    4 am   BACKBONE|DICT|INTERRES
     7    4    5 1    
     8    4   75 1    
     9    5    6 1    
    10    5   35 1    
    11    5   76 1    
    12    6    7 1    
    13    6   77 1    
    14    6   78 1    
    15    7    8 1    
    16    8    9 1    
    17    8   79 1    
    18    8   80 1    
    19    9   10 ar   
    20    9   14 ar   
    21   10   11 ar   
    22   10   81 1    
    23   11   12 ar   
    24   11   71 1    
    25   12   13 ar   
    26   12   82 1    
    27   13   14 ar   
    28   13   15 1    
    29   14   83 1    
    30   15   16 1    
    31   15   84 1    
    32   15   85 1    
    33   16   17 1    
    34   17   18 1    
    35   17   86 1    
    36   17   87 1    
    37   18   19 1    
    38   18   37 1    
    39   18   88 1    
    40   19   20 am   BACKBONE|DICT|INTERRES
    41   19   89 1    
    42   20   21 2    
    43   20   22 1    
    44   22   23 1    
    45   22   24 1    
    46   22   90 1    
    47   23   91 1    
    48   23   92 1    
    49   23   93 1    
    50   24   25 am   BACKBONE|DICT|INTERRES
    51   24   94 1    
    52   25   26 2    
    53   25   27 1    
    54   27   28 1    
    55   27   29 1    
    56   27   95 1    
    57   28   96 1    
    58   28   97 1    
    59   28   98 1    
    60   29   30 am   BACKBONE|DICT|INTERRES
    61   29   99 1    
    62   30   31 2    
    63   30   32 1    
    64   32   33 1    
    65   32   34 1    
    66   32  100 1    
    67   33  101 1    
    68   33  102 1    
    69   33  103 1    
    70   34   35 am   BACKBONE|DICT|INTERRES
    71   34  104 1    
    72   35   36 2    
    73   37   38 2    
    74   37   39 am   BACKBONE|DICT|INTERRES
    75   39   40 1    
    76   39  105 1    
    77   40   41 1    
    78   40   42 1    
    79   40  106 1    
    80   41  107 1    
    81   41  108 1    
    82   41  109 1    
    83   42   43 2    
    84   42   44 am   BACKBONE|DICT|INTERRES
    85   44   45 1    
    86   44  110 1    
    87   45   46 1    
    88   45   47 1    
    89   45  111 1    
    90   46  112 1    
    91   46  113 1    
    92   46  114 1    
    93   47   48 2    
    94   47   49 am   BACKBONE|DICT|INTERRES
    95   49   50 1    
    96   49  115 1    
    97   50   51 1    
    98   50   52 1    
    99   50  116 1    
   100   51  117 1    
   101   51  118 1    
   102   51  119 1    
   103   52   53 2    
   104   52   54 am   BACKBONE|DICT|INTERRES
   105   54   55 1    
   106   54  120 1    
   107   55   56 1    
   108   55   57 1    
   109   55  121 1    
   110   56  122 1    
   111   56  123 1    
   112   56  124 1    
   113   57   58 2    
   114   57   59 am   BACKBONE|DICT|INTERRES
   115   59   60 1    
   116   59  125 1    
   117   60   61 1    
   118   60   62 1    
   119   60  126 1    
   120   61  127 1    
   121   61  128 1    
   122   61  129 1    
   123   62   63 2    
   124   62   64 am   BACKBONE|DICT|INTERRES
   125   64   65 1    
   126   64  130 1    
   127   65   66 1    
   128   65   69 1    
   129   65  131 1    
   130   66   67 am   BACKBONE|DICT|INTERRES
   131   66   68 2    
   132   67  132 1    
   133   67  133 1    
   134   69   70 1    
   135   69  134 1    
   136   69  135 1    
   137   70   71 1    
   138   71  136 1    
   139   71  137 1    
@<TRIPOS>SUBSTRUCTURE
     1 UNK         1 GROUP             0       ****    0 ROOT    
