@<TRIPOS>MOLECULE
3R137
137   139    1
SMALL
USER_CHARGES


@<TRIPOS>ATOM
      1 CA         25.7218   -5.5877   -0.2388 C.3       0 UNK        -0.2020 
      2 C          25.8440   -4.2815    0.5304 C.2       0 UNK         0.4855 
      3 O          25.1641   -4.0935    1.5393 O.2       0 UNK        -0.5197 
      4 N          26.6859   -3.3593    0.0491 N.am      1 UNK        -0.4892 
      5 CA         26.9664   -2.0350    0.6248 C.3       1 UNK         0.0835 
      6 C6         28.3776   -1.5356    0.2083 C.3       12 UNK        -0.0855 
      7 S7         28.7024   -1.6216   -1.5925 S.3       12 UNK        -0.2931 
      8 C8         29.9898   -2.9039   -1.6530 C.3       12 UNK         0.0378 
      9 C9         30.4795   -3.1346   -3.0745 C.ar      12 UNK        -0.0802 
     10 C10        31.5973   -2.4445   -3.5529 C.ar      12 UNK        -0.0944 
     11 C11        32.0837   -2.6815   -4.8423 C.ar      12 UNK        -0.0787 
     12 C12        31.4383   -3.6218   -5.6542 C.ar      12 UNK        -0.0862 
     13 C13        30.3086   -4.3057   -5.1948 C.ar      12 UNK        -0.0733 
     14 C14        29.8351   -4.0592   -3.9018 C.ar      12 UNK        -0.0832 
     15 C15        29.6223   -5.3367   -6.0826 C.3       12 UNK         0.0240 
     16 S16        28.7590   -4.5867   -7.5022 S.3       12 UNK        -0.2522 
     17 C17        27.4327   -3.6362   -6.6827 C.3       12 UNK        -0.0967 
     18 CA         27.1296   -2.2794   -7.3678 C.3       5 UNK         0.0660 
     19 N          25.8845   -1.7035   -6.8440 N.am      5 UNK        -0.4015 
     20 C          25.3510   -0.5080   -7.1375 C.2       4 UNK         0.4946 
     21 O          25.8761    0.3085   -7.8933 O.2       4 UNK        -0.5353 
     22 CA         23.9999   -0.1465   -6.4902 C.3       4 UNK         0.0277 
     23 CB         22.9088   -0.0256   -7.5673 C.3       4 UNK        -0.1981 
     24 N          23.5471   -1.0822   -5.4532 N.am      4 UNK        -0.4209 
     25 C          24.0962   -1.2028   -4.2375 C.2       3 UNK         0.4942 
     26 O          25.0842   -0.5664   -3.8661 O.2       3 UNK        -0.5208 
     27 CA         23.4740   -2.2680   -3.3196 C.3       3 UNK         0.0250 
     28 CB         24.1330   -3.6361   -3.5691 C.3       3 UNK        -0.1990 
     29 N          23.6273   -1.9284   -1.9065 N.am      3 UNK        -0.4232 
     30 C          23.0006   -0.9304   -1.2673 C.2       2 UNK         0.4993 
     31 O          22.1478   -0.2117   -1.7907 O.2       2 UNK        -0.5286 
     32 CA         23.3674   -0.7094    0.2139 C.3       2 UNK         0.0209 
     33 CB         22.2161   -1.1594    1.1290 C.3       2 UNK        -0.1931 
     34 N          24.5877   -1.4234    0.6031 N.am      2 UNK        -0.4546 
     35 C          25.8350   -1.0172    0.3338 C.2       1 UNK         0.5154 
     36 O          26.0891    0.0900   -0.1430 O.2       1 UNK        -0.5181 
     37 C          28.3317   -1.3108   -7.3098 C.2       5 UNK         0.5014 
     38 O          29.0109   -1.1348   -8.3226 O.2       5 UNK        -0.5248 
     39 N          28.5308   -0.6559   -6.1562 N.am      6 UNK        -0.4434 
     40 CA         29.6063    0.3152   -5.9369 C.3       6 UNK         0.0363 
     41 CB         29.6413    0.7226   -4.4576 C.3       6 UNK        -0.1936 
     42 C          29.5197    1.5619   -6.8336 C.2       6 UNK         0.5081 
     43 O          30.5598    2.1083   -7.2016 O.2       6 UNK        -0.5248 
     44 N          28.2962    1.9852   -7.1764 N.am      7 UNK        -0.4718 
     45 CA         28.0416    3.0966   -8.0918 C.3       7 UNK         0.0273 
     46 CB         26.6708    3.7204   -7.7828 C.3       7 UNK        -0.1935 
     47 C          28.1192    2.6392   -9.5548 C.2       7 UNK         0.5018 
     48 O          28.7173    3.3388  -10.3713 O.2       7 UNK        -0.5186 
     49 N          27.5363    1.4690   -9.8529 N.am      8 UNK        -0.4240 
     50 CA         27.4911    0.8574  -11.1832 C.3       8 UNK         0.0235 
     51 CB         26.5772   -0.3783  -11.1505 C.3       8 UNK        -0.2000 
     52 C          28.8804    0.4953  -11.7317 C.2       8 UNK         0.4941 
     53 O          29.1705    0.8037  -12.8882 O.2       8 UNK        -0.5273 
     54 N          29.7201   -0.1254  -10.8917 N.am      9 UNK        -0.4262 
     55 CA         31.1130   -0.4505  -11.2137 C.3       9 UNK         0.0264 
     56 CB         31.5392   -1.6823  -10.3990 C.3       9 UNK        -0.1955 
     57 C          32.0771    0.7275  -10.9737 C.2       9 UNK         0.5031 
     58 O          33.2348    0.6397  -11.3844 O.2       9 UNK        -0.5390 
     59 N          31.5976    1.7905  -10.3080 N.am      10 UNK        -0.4204 
     60 CA         32.3076    3.0202   -9.9258 C.3       10 UNK         0.0237 
     61 CB         32.7374    3.8186  -11.1748 C.3       10 UNK        -0.1985 
     62 C          33.4682    2.8023   -8.9313 C.2       10 UNK         0.4970 
     63 O          34.3351    3.6698   -8.8084 O.2       10 UNK        -0.4914 
     64 N          33.4604    1.6627   -8.2321 N.am      11 UNK        -0.4285 
     65 CA         34.4231    1.2880   -7.1891 C.3       11 UNK         0.1007 
     66 C          34.1024    1.8723   -5.7834 C.2       11 UNK         0.5703 
     67 N          32.9257    2.4408   -5.5477 N.am      11 UNK        -0.7361 
     68 O          34.9493    1.8252   -4.8943 O.2       11 UNK        -0.4986 
     69 C69        34.6447   -0.2475   -7.1581 C.3       12 UNK        -0.0947 
     70 S70        33.1001   -1.2015   -6.9726 S.3       12 UNK        -0.2240 
     71 C71        33.3282   -1.9473   -5.3298 C.3       12 UNK         0.0194 
     72 H72        26.3627   -5.6049   -1.1202 H         1 UNK         0.0906 
     73 H73        26.0010   -6.4254    0.3997 H         1 UNK         0.0906 
     74 H74        24.6928   -5.7365   -0.5650 H         1 UNK         0.0906 
     75 H75        27.1936   -3.5483   -0.8040 H         1 UNK         0.3140 
     76 H76        26.9805   -2.1413    1.7121 H         1 UNK         0.1085 
     77 H77        28.5471   -0.5113    0.5459 H         1 UNK         0.0836 
     78 H78        29.1285   -2.1294    0.7317 H         1 UNK         0.0836 
     79 H79        29.6003   -3.8338   -1.2358 H         1 UNK         0.0731 
     80 H80        30.8248   -2.6076   -1.0158 H         1 UNK         0.0731 
     81 H81        32.0956   -1.7291   -2.9129 H         1 UNK         0.1312 
     82 H82        31.8119   -3.8194   -6.6498 H         1 UNK         0.1406 
     83 H83        28.9708   -4.5944   -3.5327 H         1 UNK         0.1631 
     84 H84        28.9116   -5.9343   -5.5096 H         1 UNK         0.0717 
     85 H85        30.3711   -6.0350   -6.4590 H         1 UNK         0.0717 
     86 H86        26.5416   -4.2660   -6.6948 H         1 UNK         0.0934 
     87 H87        27.6713   -3.4824   -5.6297 H         1 UNK         0.0934 
     88 H88        26.9394   -2.4785   -8.4240 H         1 UNK         0.0739 
     89 H89        25.3630   -2.2879   -6.2098 H         1 UNK         0.3093 
     90 H90        24.1274    0.8339   -6.0258 H         1 UNK         0.0818 
     91 H91        21.9652    0.3159   -7.1413 H         1 UNK         0.0819 
     92 H92        23.1933    0.6968   -8.3341 H         1 UNK         0.0819 
     93 H93        22.7282   -0.9771   -8.0690 H         1 UNK         0.0819 
     94 H94        22.7476   -1.6555   -5.6847 H         1 UNK         0.3041 
     95 H95        22.4061   -2.3422   -3.5363 H         1 UNK         0.0784 
     96 H96        23.9985   -3.9563   -4.6031 H         1 UNK         0.0793 
     97 H97        25.2058   -3.6106   -3.3715 H         1 UNK         0.0793 
     98 H98        23.6948   -4.4087   -2.9367 H         1 UNK         0.0793 
     99 H99        24.3383   -2.4298   -1.3976 H         1 UNK         0.3024 
    100 H100       23.5224    0.3631    0.3534 H         1 UNK         0.1171 
    101 H101       22.4396   -0.9555    2.1763 H         1 UNK         0.0786 
    102 H102       21.2938   -0.6293    0.8870 H         1 UNK         0.0786 
    103 H103       22.0151   -2.2269    1.0298 H         1 UNK         0.0786 
    104 H104       24.4793   -2.3450    1.0190 H         1 UNK         0.2977 
    105 H105       27.9119   -0.8360   -5.3785 H         1 UNK         0.3127 
    106 H106       30.5467   -0.1842   -6.1699 H         1 UNK         0.0770 
    107 H107       28.6942    1.1536   -4.1311 H         1 UNK         0.0814 
    108 H108       30.4208    1.4625   -4.2723 H         1 UNK         0.0814 
    109 H109       29.8597   -0.1341   -3.8228 H         1 UNK         0.0814 
    110 H110       27.4948    1.4339   -6.8970 H         1 UNK         0.2983 
    111 H111       28.8028    3.8657   -7.9404 H         1 UNK         0.0947 
    112 H112       26.4725    4.5673   -8.4411 H         1 UNK         0.0806 
    113 H113       26.6267    4.0899   -6.7582 H         1 UNK         0.0806 
    114 H114       25.8566    3.0073   -7.9166 H         1 UNK         0.0806 
    115 H115       27.0344    0.9814   -9.1116 H         1 UNK         0.3000 
    116 H116       27.0490    1.5888  -11.8630 H         1 UNK         0.0850 
    117 H117       26.4975   -0.8322  -12.1391 H         1 UNK         0.0810 
    118 H118       25.5684   -0.1169  -10.8301 H         1 UNK         0.0810 
    119 H119       26.9557   -1.1409  -10.4696 H         1 UNK         0.0810 
    120 H120       29.3942   -0.3892   -9.9612 H         1 UNK         0.3040 
    121 H121       31.1836   -0.7112  -12.2718 H         1 UNK         0.0766 
    122 H122       31.4530   -1.5031   -9.3283 H         1 UNK         0.0812 
    123 H123       32.5757   -1.9542  -10.6034 H         1 UNK         0.0812 
    124 H124       30.9222   -2.5482  -10.6390 H         1 UNK         0.0812 
    125 H125       30.6281    1.7554  -10.0240 H         1 UNK         0.3205 
    126 H126       31.5745    3.6252   -9.3902 H         1 UNK         0.0754 
    127 H127       33.1216    4.8016  -10.9001 H         1 UNK         0.0769 
    128 H128       31.8959    3.9794  -11.8490 H         1 UNK         0.0769 
    129 H129       33.5225    3.3072  -11.7325 H         1 UNK         0.0769 
    130 H130       32.6836    1.0299   -8.3537 H         1 UNK         0.2981 
    131 H131       35.3844    1.7274   -7.4620 H         1 UNK         0.0541 
    132 H132       32.1981    2.4391   -6.2564 H         1 UNK         0.3459 
    133 H133       32.7425    2.8300   -4.6377 H         1 UNK         0.3459 
    134 H134       35.3555   -0.5246   -6.3774 H         1 UNK         0.0612 
    135 H135       35.1063   -0.5611   -8.0955 H         1 UNK         0.0612 
    136 H136       33.6063   -1.1596   -4.6275 H         1 UNK         0.0624 
    137 H137       34.1635   -2.6475   -5.3667 H         1 UNK         0.0624 
@<TRIPOS>BOND
     1    1    2 1    
     2    1   72 1    
     3    1   73 1    
     4    1   74 1    
     5    2    3 2    
     6    2    4 am   BACKBONE|DICT|INTERRES
     7    4    5 1    
     8    4   75 1    
     9    5    6 1    
    10    5   35 1    
    11    5   76 1    
    12    6    7 1    
    13    6   77 1    
    14    6   78 1    
    15    7    8 1    
    16    8    9 1    
    17    8   79 1    
    18    8   80 1    
    19    9   10 ar   
    20    9   14 ar   
    21   10   11 ar   
    22   10   81 1    
    23   11   12 ar   
    24   11   71 1    
    25   12   13 ar   
    26   12   82 1    
    27   13   14 ar   
    28   13   15 1    
    29   14   83 1    
    30   15   16 1    
    31   15   84 1    
    32   15   85 1    
    33   16   17 1    
    34   17   18 1    
    35   17   86 1    
    36   17   87 1    
    37   18   19 1    
    38   18   37 1    
    39   18   88 1    
    40   19   20 am   BACKBONE|DICT|INTERRES
    41   19   89 1    
    42   20   21 2    
    43   20   22 1    
    44   22   23 1    
    45   22   24 1    
    46   22   90 1    
    47   23   91 1    
    48   23   92 1    
    49   23   93 1    
    50   24   25 am   BACKBONE|DICT|INTERRES
    51   24   94 1    
    52   25   26 2    
    53   25   27 1    
    54   27   28 1    
    55   27   29 1    
    56   27   95 1    
    57   28   96 1    
    58   28   97 1    
    59   28   98 1    
    60   29   30 am   BACKBONE|DICT|INTERRES
    61   29   99 1    
    62   30   31 2    
    63   30   32 1    
    64   32   33 1    
    65   32   34 1    
    66   32  100 1    
    67   33  101 1    
    68   33  102 1    
    69   33  103 1    
    70   34   35 am   BACKBONE|DICT|INTERRES
    71   34  104 1    
    72   35   36 2    
    73   37   38 2    
    74   37   39 am   BACKBONE|DICT|INTERRES
    75   39   40 1    
    76   39  105 1    
    77   40   41 1    
    78   40   42 1    
    79   40  106 1    
    80   41  107 1    
    81   41  108 1    
    82   41  109 1    
    83   42   43 2    
    84   42   44 am   BACKBONE|DICT|INTERRES
    85   44   45 1    
    86   44  110 1    
    87   45   46 1    
    88   45   47 1    
    89   45  111 1    
    90   46  112 1    
    91   46  113 1    
    92   46  114 1    
    93   47   48 2    
    94   47   49 am   BACKBONE|DICT|INTERRES
    95   49   50 1    
    96   49  115 1    
    97   50   51 1    
    98   50   52 1    
    99   50  116 1    
   100   51  117 1    
   101   51  118 1    
   102   51  119 1    
   103   52   53 2    
   104   52   54 am   BACKBONE|DICT|INTERRES
   105   54   55 1    
   106   54  120 1    
   107   55   56 1    
   108   55   57 1    
   109   55  121 1    
   110   56  122 1    
   111   56  123 1    
   112   56  124 1    
   113   57   58 2    
   114   57   59 am   BACKBONE|DICT|INTERRES
   115   59   60 1    
   116   59  125 1    
   117   60   61 1    
   118   60   62 1    
   119   60  126 1    
   120   61  127 1    
   121   61  128 1    
   122   61  129 1    
   123   62   63 2    
   124   62   64 am   BACKBONE|DICT|INTERRES
   125   64   65 1    
   126   64  130 1    
   127   65   66 1    
   128   65   69 1    
   129   65  131 1    
   130   66   67 am   BACKBONE|DICT|INTERRES
   131   66   68 2    
   132   67  132 1    
   133   67  133 1    
   134   69   70 1    
   135   69  134 1    
   136   69  135 1    
   137   70   71 1    
   138   71  136 1    
   139   71  137 1    
@<TRIPOS>SUBSTRUCTURE
     1 UNK         1 GROUP             0       ****    0 ROOT    
