@<TRIPOS>MOLECULE
3R137
137   139    1
SMALL
USER_CHARGES


@<TRIPOS>ATOM
      1 CA         24.4859   -6.1963   -3.8691 C.3       0 UNK        -0.2020 
      2 C          24.9633   -5.2416   -2.7852 C.2       0 UNK         0.4855 
      3 O          24.1813   -4.4178   -2.3081 O.2       0 UNK        -0.5197 
      4 N          26.2416   -5.3473   -2.3946 N.am      1 UNK        -0.4892 
      5 CA         26.9037   -4.5068   -1.3898 C.3       1 UNK         0.0835 
      6 C6         28.3509   -4.9940   -1.1311 C.3       12 UNK        -0.0855 
      7 S7         29.1446   -4.1813    0.3033 S.3       12 UNK        -0.2931 
      8 C8         30.9149   -4.2146   -0.1484 C.3       12 UNK         0.0378 
      9 C9         31.1882   -3.5021   -1.4661 C.ar      12 UNK        -0.0802 
     10 C10        31.5640   -4.2335   -2.5965 C.ar      12 UNK        -0.0944 
     11 C11        31.7313   -3.6008   -3.8317 C.ar      12 UNK        -0.0787 
     12 C12        31.5167   -2.2216   -3.9267 C.ar      12 UNK        -0.0862 
     13 C13        31.1735   -1.4715   -2.7983 C.ar      12 UNK        -0.0733 
     14 C14        31.0268   -2.1181   -1.5661 C.ar      12 UNK        -0.0832 
     15 C15        30.9320    0.0280   -2.9206 C.3       12 UNK         0.0240 
     16 S16        29.2823    0.4642   -2.2946 S.3       12 UNK        -0.2522 
     17 C17        28.8369    1.9460   -3.2573 C.3       12 UNK        -0.0967 
     18 CA         28.5440    1.7004   -4.7671 C.3       5 UNK         0.0660 
     19 N          28.0206    0.3671   -5.0689 N.am      5 UNK        -0.4015 
     20 C          27.9535   -0.1772   -6.2917 C.2       4 UNK         0.4946 
     21 O          28.3642    0.3681   -7.3177 O.2       4 UNK        -0.5353 
     22 CA         27.2836   -1.5555   -6.3883 C.3       4 UNK         0.0277 
     23 CB         28.3100   -2.6718   -6.1345 C.3       4 UNK        -0.1981 
     24 N          26.1555   -1.6854   -5.4601 N.am      4 UNK        -0.4209 
     25 C          25.0006   -1.0126   -5.5960 C.2       3 UNK         0.4942 
     26 O          24.7635   -0.2508   -6.5323 O.2       3 UNK        -0.5208 
     27 CA         23.9453   -1.1696   -4.4877 C.3       3 UNK         0.0250 
     28 CB         23.0129   -2.3506   -4.7951 C.3       3 UNK        -0.1990 
     29 N          24.5237   -1.3269   -3.1520 N.am      3 UNK        -0.4232 
     30 C          25.2869   -0.4048   -2.5448 C.2       2 UNK         0.4993 
     31 O          25.5465    0.6952   -3.0355 O.2       2 UNK        -0.5286 
     32 CA         25.8986   -0.7779   -1.1824 C.3       2 UNK         0.0209 
     33 CB         25.0108   -0.2548   -0.0424 C.3       2 UNK        -0.1931 
     34 N          26.1440   -2.2114   -0.9844 N.am      2 UNK        -0.4546 
     35 C          26.8410   -3.0187   -1.7992 C.2       1 UNK         0.5154 
     36 O          27.3561   -2.6554   -2.8594 O.2       1 UNK        -0.5181 
     37 C          27.5959    2.7826   -5.3147 C.2       5 UNK         0.5014 
     38 O          28.0544    3.7109   -5.9799 O.2       5 UNK        -0.5248 
     39 N          26.2905    2.6240   -5.0420 N.am      6 UNK        -0.4434 
     40 CA         25.2168    3.5168   -5.4869 C.3       6 UNK         0.0363 
     41 CB         23.8909    3.0882   -4.8389 C.3       6 UNK        -0.1936 
     42 C          25.0751    3.5818   -7.0165 C.2       6 UNK         0.5081 
     43 O          24.8868    4.6705   -7.5598 O.2       6 UNK        -0.5248 
     44 N          25.1961    2.4271   -7.6860 N.am      7 UNK        -0.4718 
     45 CA         25.2139    2.3192   -9.1480 C.3       7 UNK         0.0273 
     46 CB         24.9400    0.8590   -9.5446 C.3       7 UNK        -0.1935 
     47 C          26.5334    2.7957   -9.7830 C.2       7 UNK         0.5018 
     48 O          26.5572    3.0268  -10.9926 O.2       7 UNK        -0.5186 
     49 N          27.5996    2.9005   -8.9731 N.am      8 UNK        -0.4240 
     50 CA         28.9926    3.1659   -9.3510 C.3       8 UNK         0.0235 
     51 CB         29.1587    4.6060   -9.8794 C.3       8 UNK        -0.2000 
     52 C          29.5310    2.0962  -10.3196 C.2       8 UNK         0.4941 
     53 O          30.1805    2.4225  -11.3159 O.2       8 UNK        -0.5273 
     54 N          29.2368    0.8249  -10.0158 N.am      9 UNK        -0.4262 
     55 CA         29.4940   -0.3437  -10.8616 C.3       9 UNK         0.0264 
     56 CB         28.5273   -1.4684  -10.4435 C.3       9 UNK        -0.1955 
     57 C          30.9692   -0.7887  -10.8314 C.2       9 UNK         0.5031 
     58 O          31.2517   -1.9533  -10.5420 O.2       9 UNK        -0.5390 
     59 N          31.8864    0.1559  -11.0882 N.am      10 UNK        -0.4204 
     60 CA         33.3581    0.0716  -11.0843 C.3       10 UNK         0.0237 
     61 CB         33.8647   -0.9141  -12.1550 C.3       10 UNK        -0.1985 
     62 C          33.9871   -0.2366   -9.7106 C.2       10 UNK         0.4970 
     63 O          34.9967    0.3733   -9.3575 O.2       10 UNK        -0.4914 
     64 N          33.3783   -1.1639   -8.9678 N.am      11 UNK        -0.4285 
     65 CA         33.7214   -1.5760   -7.6031 C.3       11 UNK         0.1007 
     66 C          33.5733   -0.4459   -6.5424 C.2       11 UNK         0.5703 
     67 N          32.6561    0.4994   -6.7186 N.am      11 UNK        -0.7361 
     68 O          34.3080   -0.4168   -5.5591 O.2       11 UNK        -0.4986 
     69 C69        32.8969   -2.8367   -7.2351 C.3       12 UNK        -0.0947 
     70 S70        33.6110   -3.8342   -5.8870 S.3       12 UNK        -0.2240 
     71 C71        32.0992   -4.4273   -5.0586 C.3       12 UNK         0.0194 
     72 H72        24.2582   -5.6477   -4.7822 H         1 UNK         0.0906 
     73 H73        25.2345   -6.9523   -4.1053 H         1 UNK         0.0906 
     74 H74        23.5805   -6.7085   -3.5448 H         1 UNK         0.0906 
     75 H75        26.8347   -6.0275   -2.8479 H         1 UNK         0.3140 
     76 H76        26.3419   -4.6337   -0.4617 H         1 UNK         0.1085 
     77 H77        28.3522   -6.0673   -0.9344 H         1 UNK         0.0836 
     78 H78        28.9495   -4.8555   -2.0315 H         1 UNK         0.0836 
     79 H79        31.2504   -5.2521   -0.1905 H         1 UNK         0.0731 
     80 H80        31.4928   -3.7382    0.6447 H         1 UNK         0.0731 
     81 H81        31.6960   -5.3042   -2.5200 H         1 UNK         0.1312 
     82 H82        31.6150   -1.7284   -4.8811 H         1 UNK         0.1406 
     83 H83        30.7355   -1.5503   -0.6928 H         1 UNK         0.1631 
     84 H84        31.0236    0.3451   -3.9602 H         1 UNK         0.0717 
     85 H85        31.6915    0.5710   -2.3569 H         1 UNK         0.0717 
     86 H86        27.9640    2.3646   -2.7510 H         1 UNK         0.0934 
     87 H87        29.6247    2.6930   -3.1448 H         1 UNK         0.0934 
     88 H88        29.4900    1.7938   -5.3051 H         1 UNK         0.0739 
     89 H89        27.6692   -0.1581   -4.2799 H         1 UNK         0.3093 
     90 H90        26.9010   -1.6677   -7.4052 H         1 UNK         0.0818 
     91 H91        29.1314   -2.6155   -6.8502 H         1 UNK         0.0819 
     92 H92        28.7455   -2.6050   -5.1366 H         1 UNK         0.0819 
     93 H93        27.8580   -3.6583   -6.2364 H         1 UNK         0.0819 
     94 H94        26.3162   -2.2329   -4.6205 H         1 UNK         0.3041 
     95 H95        23.3435   -0.2589   -4.4757 H         1 UNK         0.0784 
     96 H96        22.5171   -2.2143   -5.7573 H         1 UNK         0.0793 
     97 H97        23.5583   -3.2928   -4.8413 H         1 UNK         0.0793 
     98 H98        22.2333   -2.4506   -4.0397 H         1 UNK         0.0793 
     99 H99        24.3793   -2.2184   -2.6910 H         1 UNK         0.3024 
    100 H100       26.8618   -0.2743   -1.1140 H         1 UNK         0.1171 
    101 H101       25.4812   -0.4053    0.9295 H         1 UNK         0.0786 
    102 H102       24.8300    0.8161   -0.1488 H         1 UNK         0.0786 
    103 H103       24.0388   -0.7497   -0.0276 H         1 UNK         0.0786 
    104 H104       25.7318   -2.6164   -0.1563 H         1 UNK         0.2977 
    105 H105       26.0135    1.8497   -4.4401 H         1 UNK         0.3127 
    106 H106       25.4599    4.5214   -5.1345 H         1 UNK         0.0770 
    107 H107       23.5983    2.0847   -5.1487 H         1 UNK         0.0814 
    108 H108       23.0828    3.7653   -5.1188 H         1 UNK         0.0814 
    109 H109       23.9594    3.0956   -3.7509 H         1 UNK         0.0814 
    110 H110       25.2712    1.5569   -7.1653 H         1 UNK         0.2983 
    111 H111       24.4127    2.9419   -9.5522 H         1 UNK         0.0947 
    112 H112       24.9197    0.7424  -10.6290 H         1 UNK         0.0806 
    113 H113       23.9767    0.5187   -9.1641 H         1 UNK         0.0806 
    114 H114       25.7082    0.1880   -9.1576 H         1 UNK         0.0806 
    115 H115       27.4571    2.6891   -7.9937 H         1 UNK         0.3000 
    116 H116       29.5803    3.0766   -8.4359 H         1 UNK         0.0850 
    117 H117       30.2101    4.8391  -10.0516 H         1 UNK         0.0810 
    118 H118       28.7779    5.3349   -9.1639 H         1 UNK         0.0810 
    119 H119       28.6341    4.7559  -10.8235 H         1 UNK         0.0810 
    120 H120       28.7836    0.6445   -9.1208 H         1 UNK         0.3040 
    121 H121       29.2647   -0.0773  -11.8956 H         1 UNK         0.0766 
    122 H122       27.4883   -1.1492  -10.5248 H         1 UNK         0.0812 
    123 H123       28.7014   -1.7852   -9.4144 H         1 UNK         0.0812 
    124 H124       28.6455   -2.3457  -11.0808 H         1 UNK         0.0812 
    125 H125       31.5075    1.0825  -11.2790 H         1 UNK         0.3205 
    126 H126       33.7064    1.0667  -11.3659 H         1 UNK         0.0754 
    127 H127       34.9542   -0.9041  -12.2087 H         1 UNK         0.0769 
    128 H128       33.4895   -0.6510  -13.1440 H         1 UNK         0.0769 
    129 H129       33.5608   -1.9398  -11.9436 H         1 UNK         0.0769 
    130 H130       32.5650   -1.6136   -9.3843 H         1 UNK         0.2981 
    131 H131       34.7768   -1.8536   -7.6248 H         1 UNK         0.0541 
    132 H132       32.0571    0.4877   -7.5272 H         1 UNK         0.3459 
    133 H133       32.5849    1.2440   -6.0448 H         1 UNK         0.3459 
    134 H134       31.8645   -2.5637   -7.0108 H         1 UNK         0.0612 
    135 H135       32.8372   -3.5046   -8.0964 H         1 UNK         0.0612 
    136 H136       31.2595   -4.4394   -5.7546 H         1 UNK         0.0624 
    137 H137       32.2670   -5.4677   -4.7763 H         1 UNK         0.0624 
@<TRIPOS>BOND
     1    1    2 1    
     2    1   72 1    
     3    1   73 1    
     4    1   74 1    
     5    2    3 2    
     6    2    4 am   BACKBONE|DICT|INTERRES
     7    4    5 1    
     8    4   75 1    
     9    5    6 1    
    10    5   35 1    
    11    5   76 1    
    12    6    7 1    
    13    6   77 1    
    14    6   78 1    
    15    7    8 1    
    16    8    9 1    
    17    8   79 1    
    18    8   80 1    
    19    9   10 ar   
    20    9   14 ar   
    21   10   11 ar   
    22   10   81 1    
    23   11   12 ar   
    24   11   71 1    
    25   12   13 ar   
    26   12   82 1    
    27   13   14 ar   
    28   13   15 1    
    29   14   83 1    
    30   15   16 1    
    31   15   84 1    
    32   15   85 1    
    33   16   17 1    
    34   17   18 1    
    35   17   86 1    
    36   17   87 1    
    37   18   19 1    
    38   18   37 1    
    39   18   88 1    
    40   19   20 am   BACKBONE|DICT|INTERRES
    41   19   89 1    
    42   20   21 2    
    43   20   22 1    
    44   22   23 1    
    45   22   24 1    
    46   22   90 1    
    47   23   91 1    
    48   23   92 1    
    49   23   93 1    
    50   24   25 am   BACKBONE|DICT|INTERRES
    51   24   94 1    
    52   25   26 2    
    53   25   27 1    
    54   27   28 1    
    55   27   29 1    
    56   27   95 1    
    57   28   96 1    
    58   28   97 1    
    59   28   98 1    
    60   29   30 am   BACKBONE|DICT|INTERRES
    61   29   99 1    
    62   30   31 2    
    63   30   32 1    
    64   32   33 1    
    65   32   34 1    
    66   32  100 1    
    67   33  101 1    
    68   33  102 1    
    69   33  103 1    
    70   34   35 am   BACKBONE|DICT|INTERRES
    71   34  104 1    
    72   35   36 2    
    73   37   38 2    
    74   37   39 am   BACKBONE|DICT|INTERRES
    75   39   40 1    
    76   39  105 1    
    77   40   41 1    
    78   40   42 1    
    79   40  106 1    
    80   41  107 1    
    81   41  108 1    
    82   41  109 1    
    83   42   43 2    
    84   42   44 am   BACKBONE|DICT|INTERRES
    85   44   45 1    
    86   44  110 1    
    87   45   46 1    
    88   45   47 1    
    89   45  111 1    
    90   46  112 1    
    91   46  113 1    
    92   46  114 1    
    93   47   48 2    
    94   47   49 am   BACKBONE|DICT|INTERRES
    95   49   50 1    
    96   49  115 1    
    97   50   51 1    
    98   50   52 1    
    99   50  116 1    
   100   51  117 1    
   101   51  118 1    
   102   51  119 1    
   103   52   53 2    
   104   52   54 am   BACKBONE|DICT|INTERRES
   105   54   55 1    
   106   54  120 1    
   107   55   56 1    
   108   55   57 1    
   109   55  121 1    
   110   56  122 1    
   111   56  123 1    
   112   56  124 1    
   113   57   58 2    
   114   57   59 am   BACKBONE|DICT|INTERRES
   115   59   60 1    
   116   59  125 1    
   117   60   61 1    
   118   60   62 1    
   119   60  126 1    
   120   61  127 1    
   121   61  128 1    
   122   61  129 1    
   123   62   63 2    
   124   62   64 am   BACKBONE|DICT|INTERRES
   125   64   65 1    
   126   64  130 1    
   127   65   66 1    
   128   65   69 1    
   129   65  131 1    
   130   66   67 am   BACKBONE|DICT|INTERRES
   131   66   68 2    
   132   67  132 1    
   133   67  133 1    
   134   69   70 1    
   135   69  134 1    
   136   69  135 1    
   137   70   71 1    
   138   71  136 1    
   139   71  137 1    
@<TRIPOS>SUBSTRUCTURE
     1 UNK         1 GROUP             0       ****    0 ROOT    
