@<TRIPOS>MOLECULE
3R137
137   139    1
SMALL
USER_CHARGES


@<TRIPOS>ATOM
      1 CA         25.0937   -6.3770    1.5818 C.3       0 UNK        -0.2020 
      2 C          25.7623   -5.0122    1.5124 C.2       0 UNK         0.4855 
      3 O          25.5226   -4.1697    2.3775 O.2       0 UNK        -0.5197 
      4 N          26.6022   -4.7899    0.4920 N.am      1 UNK        -0.4892 
      5 CA         27.3103   -3.5251    0.2477 C.3       1 UNK         0.0835 
      6 C6         28.4417   -3.7119   -0.7935 C.3       12 UNK        -0.0855 
      7 S7         29.8200   -2.5379   -0.5698 S.3       12 UNK        -0.2931 
      8 C8         31.2181   -3.4911   -1.2482 C.3       12 UNK         0.0378 
      9 C9         31.2177   -3.4988   -2.7717 C.ar      12 UNK        -0.0802 
     10 C10        32.0976   -2.6760   -3.4797 C.ar      12 UNK        -0.0944 
     11 C11        32.1210   -2.6928   -4.8776 C.ar      12 UNK        -0.0787 
     12 C12        31.2377   -3.5288   -5.5713 C.ar      12 UNK        -0.0862 
     13 C13        30.3494   -4.3574   -4.8739 C.ar      12 UNK        -0.0733 
     14 C14        30.3584   -4.3462   -3.4765 C.ar      12 UNK        -0.0832 
     15 C15        29.4153   -5.3155   -5.6068 C.3       12 UNK         0.0240 
     16 S16        28.3760   -4.5195   -6.8730 S.3       12 UNK        -0.2522 
     17 C17        27.2872   -3.4150   -5.9032 C.3       12 UNK        -0.0967 
     18 CA         26.8814   -2.1834   -6.7526 C.3       5 UNK         0.0660 
     19 N          25.6053   -1.5809   -6.3527 N.am      5 UNK        -0.4015 
     20 C          24.8916   -0.7797   -7.1630 C.2       4 UNK         0.4946 
     21 O          25.2223   -0.5065   -8.3169 O.2       4 UNK        -0.5353 
     22 CA         23.6219   -0.1294   -6.5880 C.3       4 UNK         0.0277 
     23 CB         22.4400   -1.1108   -6.6352 C.3       4 UNK        -0.1981 
     24 N          23.7997    0.3624   -5.2225 N.am      4 UNK        -0.4209 
     25 C          24.7012    1.2821   -4.8492 C.2       3 UNK         0.4942 
     26 O          25.4225    1.8903   -5.6382 O.2       3 UNK        -0.5208 
     27 CA         24.8628    1.5355   -3.3400 C.3       3 UNK         0.0250 
     28 CB         24.0986    2.8027   -2.9255 C.3       3 UNK        -0.1990 
     29 N          24.4463    0.4145   -2.4888 N.am      3 UNK        -0.4232 
     30 C          24.9638   -0.8220   -2.5212 C.2       2 UNK         0.4993 
     31 O          25.8270   -1.1921   -3.3245 O.2       2 UNK        -0.5286 
     32 CA         24.3475   -1.8324   -1.5411 C.3       2 UNK         0.0209 
     33 CB         23.2479   -2.6478   -2.2415 C.3       2 UNK        -0.1931 
     34 N          25.3486   -2.7492   -0.9992 N.am      2 UNK        -0.4546 
     35 C          26.3455   -2.3964   -0.1743 C.2       1 UNK         0.5154 
     36 O          26.4976   -1.2566    0.2695 O.2       1 UNK        -0.5181 
     37 C          27.9991   -1.1281   -6.8107 C.2       5 UNK         0.5014 
     38 O          28.7952   -1.1535   -7.7487 O.2       5 UNK        -0.5248 
     39 N          28.0061   -0.1896   -5.8507 N.am      6 UNK        -0.4434 
     40 CA         28.9511    0.9295   -5.8115 C.3       6 UNK         0.0363 
     41 CB         28.7838    1.7279   -4.5106 C.3       6 UNK        -0.1936 
     42 C          28.8549    1.8444   -7.0437 C.2       6 UNK         0.5081 
     43 O          29.8871    2.2806   -7.5557 O.2       6 UNK        -0.5248 
     44 N          27.6235    2.0823   -7.5139 N.am      7 UNK        -0.4718 
     45 CA         27.3274    2.7799   -8.7620 C.3       7 UNK         0.0273 
     46 CB         25.8389    3.1626   -8.7972 C.3       7 UNK        -0.1935 
     47 C          27.7129    1.9534   -9.9998 C.2       7 UNK         0.5018 
     48 O          28.3910    2.4830  -10.8797 O.2       7 UNK        -0.5186 
     49 N          27.2879    0.6805  -10.0495 N.am      8 UNK        -0.4240 
     50 CA         27.5142   -0.2274  -11.1814 C.3       8 UNK         0.0235 
     51 CB         26.7080   -1.5216  -10.9900 C.3       8 UNK        -0.2000 
     52 C          28.9954   -0.5511  -11.4332 C.2       8 UNK         0.4941 
     53 O          29.4280   -0.5295  -12.5862 O.2       8 UNK        -0.5273 
     54 N          29.7492   -0.8272  -10.3606 N.am      9 UNK        -0.4262 
     55 CA         31.1934   -1.0725  -10.4104 C.3       9 UNK         0.0264 
     56 CB         31.6093   -1.8746   -9.1667 C.3       9 UNK        -0.1955 
     57 C          32.0194    0.2223  -10.5123 C.2       9 UNK         0.5031 
     58 O          33.2144    0.1437  -10.8000 O.2       9 UNK        -0.5390 
     59 N          31.3837    1.3751  -10.2501 N.am      10 UNK        -0.4204 
     60 CA         31.9490    2.7287  -10.2006 C.3       10 UNK         0.0237 
     61 CB         32.4629    3.1665  -11.5888 C.3       10 UNK        -0.1985 
     62 C          32.9957    2.9259   -9.0846 C.2       10 UNK         0.4970 
     63 O          33.8037    3.8529   -9.1685 O.2       10 UNK        -0.4914 
     64 N          32.9571    2.0699   -8.0555 N.am      11 UNK        -0.4285 
     65 CA         33.7945    2.1646   -6.8535 C.3       11 UNK         0.1007 
     66 C          33.2683    3.1871   -5.8036 C.2       11 UNK         0.5703 
     67 N          32.0236    3.6461   -5.8898 N.am      11 UNK        -0.7361 
     68 O          34.0110    3.5840   -4.9088 O.2       11 UNK        -0.4986 
     69 C69        34.0785    0.7659   -6.2421 C.3       12 UNK        -0.0947 
     70 S70        32.5864   -0.0857   -5.6332 S.3       12 UNK        -0.2240 
     71 C71        33.1217   -1.8196   -5.6215 C.3       12 UNK         0.0194 
     72 H72        24.0105   -6.2663    1.5382 H         1 UNK         0.0906 
     73 H73        25.4012   -7.0259    0.7620 H         1 UNK         0.0906 
     74 H74        25.3479   -6.8719    2.5188 H         1 UNK         0.0906 
     75 H75        26.7656   -5.5273   -0.1793 H         1 UNK         0.3140 
     76 H76        27.7591   -3.2270    1.1985 H         1 UNK         0.1085 
     77 H77        28.8545   -4.7174   -0.6986 H         1 UNK         0.0836 
     78 H78        28.0640   -3.6364   -1.8156 H         1 UNK         0.0836 
     79 H79        32.1453   -3.0516   -0.8771 H         1 UNK         0.0731 
     80 H80        31.1999   -4.5129   -0.8662 H         1 UNK         0.0731 
     81 H81        32.7740   -2.0238   -2.9438 H         1 UNK         0.1312 
     82 H82        31.2467   -3.5450   -6.6524 H         1 UNK         0.1406 
     83 H83        29.6972   -5.0071   -2.9350 H         1 UNK         0.1631 
     84 H84        30.0207   -6.0830   -6.0906 H         1 UNK         0.0717 
     85 H85        28.7623   -5.8393   -4.9069 H         1 UNK         0.0717 
     86 H86        26.4038   -3.9917   -5.6250 H         1 UNK         0.0934 
     87 H87        27.7649   -3.1194   -4.9664 H         1 UNK         0.0934 
     88 H88        26.7326   -2.5361   -7.7756 H         1 UNK         0.0739 
     89 H89        25.3285   -1.6911   -5.3845 H         1 UNK         0.3093 
     90 H90        23.3794    0.7297   -7.2174 H         1 UNK         0.0818 
     91 H91        21.5131   -0.6315   -6.3194 H         1 UNK         0.0819 
     92 H92        22.2813   -1.4799   -7.6496 H         1 UNK         0.0819 
     93 H93        22.6051   -1.9784   -5.9949 H         1 UNK         0.0819 
     94 H94        23.2390   -0.0705   -4.5040 H         1 UNK         0.3041 
     95 H95        25.9250    1.7019   -3.1531 H         1 UNK         0.0784 
     96 H96        24.4099    3.6595   -3.5252 H         1 UNK         0.0793 
     97 H97        23.0219    2.6872   -3.0572 H         1 UNK         0.0793 
     98 H98        24.2856    3.0570   -1.8820 H         1 UNK         0.0793 
     99 H99        23.7263    0.6189   -1.8101 H         1 UNK         0.3024 
    100 H100       23.9046   -1.2900   -0.7025 H         1 UNK         0.1171 
    101 H101       22.7763   -3.3505   -1.5541 H         1 UNK         0.0786 
    102 H102       22.4604   -1.9979   -2.6256 H         1 UNK         0.0786 
    103 H103       23.6415   -3.2169   -3.0851 H         1 UNK         0.0786 
    104 H104       25.3059   -3.7070   -1.3134 H         1 UNK         0.2977 
    105 H105       27.3132   -0.2376   -5.1159 H         1 UNK         0.3127 
    106 H106       29.9452    0.4917   -5.8121 H         1 UNK         0.0770 
    107 H107       27.8310    2.2550   -4.4781 H         1 UNK         0.0814 
    108 H108       29.5703    2.4779   -4.4179 H         1 UNK         0.0814 
    109 H109       28.8476    1.0827   -3.6342 H         1 UNK         0.0814 
    110 H110       26.8282    1.7545   -6.9718 H         1 UNK         0.2983 
    111 H111       27.9152    3.7005   -8.7813 H         1 UNK         0.0947 
    112 H112       25.5935    3.6957   -9.7166 H         1 UNK         0.0806 
    113 H113       25.5800    3.8156   -7.9635 H         1 UNK         0.0806 
    114 H114       25.1928    2.2856   -8.7436 H         1 UNK         0.0806 
    115 H115       26.7068    0.3251   -9.2944 H         1 UNK         0.3000 
    116 H116       27.1355    0.2725  -12.0755 H         1 UNK         0.0850 
    117 H117       26.8461   -2.1974  -11.8351 H         1 UNK         0.0810 
    118 H118       25.6403   -1.3164  -10.9117 H         1 UNK         0.0810 
    119 H119       27.0141   -2.0566  -10.0910 H         1 UNK         0.0810 
    120 H120       29.3137   -0.8665   -9.4373 H         1 UNK         0.3040 
    121 H121       31.4175   -1.6752  -11.2931 H         1 UNK         0.0766 
    122 H122       31.0553   -2.8107   -9.0954 H         1 UNK         0.0812 
    123 H123       31.4324   -1.3119   -8.2495 H         1 UNK         0.0812 
    124 H124       32.6705   -2.1248   -9.1976 H         1 UNK         0.0812 
    125 H125       30.3994    1.3196  -10.0230 H         1 UNK         0.3205 
    126 H126       31.1157    3.3832   -9.9402 H         1 UNK         0.0754 
    127 H127       32.7342    4.2229  -11.5916 H         1 UNK         0.0769 
    128 H128       31.6988    3.0285  -12.3539 H         1 UNK         0.0769 
    129 H129       33.3468    2.6037  -11.8903 H         1 UNK         0.0769 
    130 H130       32.2197    1.3810   -8.0281 H         1 UNK         0.2981 
    131 H131       34.7647    2.5545   -7.1673 H         1 UNK         0.0541 
    132 H132       31.3921    3.2873   -6.5968 H         1 UNK         0.3459 
    133 H133       31.6988    4.3183   -5.2142 H         1 UNK         0.3459 
    134 H134       34.7894    0.8469   -5.4180 H         1 UNK         0.0612 
    135 H135       34.5590    0.1341   -6.9909 H         1 UNK         0.0612 
    136 H136       34.0972   -1.8931   -5.1384 H         1 UNK         0.0624 
    137 H137       33.2552   -2.1665   -6.6468 H         1 UNK         0.0624 
@<TRIPOS>BOND
     1    1    2 1    
     2    1   72 1    
     3    1   73 1    
     4    1   74 1    
     5    2    3 2    
     6    2    4 am   BACKBONE|DICT|INTERRES
     7    4    5 1    
     8    4   75 1    
     9    5    6 1    
    10    5   35 1    
    11    5   76 1    
    12    6    7 1    
    13    6   77 1    
    14    6   78 1    
    15    7    8 1    
    16    8    9 1    
    17    8   79 1    
    18    8   80 1    
    19    9   10 ar   
    20    9   14 ar   
    21   10   11 ar   
    22   10   81 1    
    23   11   12 ar   
    24   11   71 1    
    25   12   13 ar   
    26   12   82 1    
    27   13   14 ar   
    28   13   15 1    
    29   14   83 1    
    30   15   16 1    
    31   15   84 1    
    32   15   85 1    
    33   16   17 1    
    34   17   18 1    
    35   17   86 1    
    36   17   87 1    
    37   18   19 1    
    38   18   37 1    
    39   18   88 1    
    40   19   20 am   BACKBONE|DICT|INTERRES
    41   19   89 1    
    42   20   21 2    
    43   20   22 1    
    44   22   23 1    
    45   22   24 1    
    46   22   90 1    
    47   23   91 1    
    48   23   92 1    
    49   23   93 1    
    50   24   25 am   BACKBONE|DICT|INTERRES
    51   24   94 1    
    52   25   26 2    
    53   25   27 1    
    54   27   28 1    
    55   27   29 1    
    56   27   95 1    
    57   28   96 1    
    58   28   97 1    
    59   28   98 1    
    60   29   30 am   BACKBONE|DICT|INTERRES
    61   29   99 1    
    62   30   31 2    
    63   30   32 1    
    64   32   33 1    
    65   32   34 1    
    66   32  100 1    
    67   33  101 1    
    68   33  102 1    
    69   33  103 1    
    70   34   35 am   BACKBONE|DICT|INTERRES
    71   34  104 1    
    72   35   36 2    
    73   37   38 2    
    74   37   39 am   BACKBONE|DICT|INTERRES
    75   39   40 1    
    76   39  105 1    
    77   40   41 1    
    78   40   42 1    
    79   40  106 1    
    80   41  107 1    
    81   41  108 1    
    82   41  109 1    
    83   42   43 2    
    84   42   44 am   BACKBONE|DICT|INTERRES
    85   44   45 1    
    86   44  110 1    
    87   45   46 1    
    88   45   47 1    
    89   45  111 1    
    90   46  112 1    
    91   46  113 1    
    92   46  114 1    
    93   47   48 2    
    94   47   49 am   BACKBONE|DICT|INTERRES
    95   49   50 1    
    96   49  115 1    
    97   50   51 1    
    98   50   52 1    
    99   50  116 1    
   100   51  117 1    
   101   51  118 1    
   102   51  119 1    
   103   52   53 2    
   104   52   54 am   BACKBONE|DICT|INTERRES
   105   54   55 1    
   106   54  120 1    
   107   55   56 1    
   108   55   57 1    
   109   55  121 1    
   110   56  122 1    
   111   56  123 1    
   112   56  124 1    
   113   57   58 2    
   114   57   59 am   BACKBONE|DICT|INTERRES
   115   59   60 1    
   116   59  125 1    
   117   60   61 1    
   118   60   62 1    
   119   60  126 1    
   120   61  127 1    
   121   61  128 1    
   122   61  129 1    
   123   62   63 2    
   124   62   64 am   BACKBONE|DICT|INTERRES
   125   64   65 1    
   126   64  130 1    
   127   65   66 1    
   128   65   69 1    
   129   65  131 1    
   130   66   67 am   BACKBONE|DICT|INTERRES
   131   66   68 2    
   132   67  132 1    
   133   67  133 1    
   134   69   70 1    
   135   69  134 1    
   136   69  135 1    
   137   70   71 1    
   138   71  136 1    
   139   71  137 1    
@<TRIPOS>SUBSTRUCTURE
     1 UNK         1 GROUP             0       ****    0 ROOT    
