@<TRIPOS>MOLECULE
3R137
137   139    1
SMALL
USER_CHARGES


@<TRIPOS>ATOM
      1 CA         27.1708   -9.2257   -1.5205 C.3       0 UNK        -0.2020 
      2 C          27.0310   -7.8746   -0.8360 C.2       0 UNK         0.4855 
      3 O          26.4054   -7.7845    0.2204 O.2       0 UNK        -0.5197 
      4 N          27.6046   -6.8208   -1.4311 N.am      1 UNK        -0.4892 
      5 CA         27.5705   -5.4410   -0.9251 C.3       1 UNK         0.0835 
      6 C6         28.7781   -4.6106   -1.4302 C.3       12 UNK        -0.0855 
      7 S7         29.0233   -4.6560   -3.2408 S.3       12 UNK        -0.2931 
      8 C8         28.4982   -2.9860   -3.7293 C.3       12 UNK         0.0378 
      9 C9         29.4871   -1.9094   -3.3050 C.ar      12 UNK        -0.0802 
     10 C10        30.7006   -1.7491   -3.9835 C.ar      12 UNK        -0.0944 
     11 C11        31.6062   -0.7543   -3.5982 C.ar      12 UNK        -0.0787 
     12 C12        31.2882    0.0794   -2.5206 C.ar      12 UNK        -0.0862 
     13 C13        30.0719   -0.0600   -1.8473 C.ar      12 UNK        -0.0733 
     14 C14        29.1760   -1.0565   -2.2431 C.ar      12 UNK        -0.0832 
     15 C15        29.7198    0.8688   -0.6960 C.3       12 UNK         0.0240 
     16 S16        28.3321    1.9673   -1.1187 S.3       12 UNK        -0.2522 
     17 C17        29.0444    2.9882   -2.4569 C.3       12 UNK        -0.0967 
     18 CA         28.6795    2.4995   -3.8887 C.3       5 UNK         0.0660 
     19 N          27.2371    2.2604   -4.0260 N.am      5 UNK        -0.4015 
     20 C          26.6441    1.4900   -4.9454 C.2       4 UNK         0.4946 
     21 O          27.2349    0.9597   -5.8894 O.2       4 UNK        -0.5353 
     22 CA         25.1226    1.3175   -4.8100 C.3       4 UNK         0.0277 
     23 CB         24.3851    2.3230   -5.7093 C.3       4 UNK        -0.1981 
     24 N          24.7041   -0.0436   -5.1544 N.am      4 UNK        -0.4209 
     25 C          25.0011   -1.1288   -4.4268 C.2       3 UNK         0.4942 
     26 O          25.6050   -1.0844   -3.3526 O.2       3 UNK        -0.5208 
     27 CA         24.5467   -2.4813   -5.0086 C.3       3 UNK         0.0250 
     28 CB         25.3901   -2.8867   -6.2303 C.3       3 UNK        -0.1990 
     29 N          24.5985   -3.5600   -4.0170 N.am      3 UNK        -0.4232 
     30 C          23.7003   -3.7315   -3.0386 C.2       2 UNK         0.4993 
     31 O          22.7050   -3.0198   -2.8914 O.2       2 UNK        -0.5286 
     32 CA         23.9161   -4.9143   -2.0799 C.3       2 UNK         0.0209 
     33 CB         23.0786   -6.1238   -2.5287 C.3       2 UNK        -0.1931 
     34 N          25.3145   -5.3340   -1.9378 N.am      2 UNK        -0.4546 
     35 C          26.2136   -4.7294   -1.1466 C.2       1 UNK         0.5154 
     36 O          25.9902   -3.6707   -0.5582 O.2       1 UNK        -0.5181 
     37 C          29.2092    3.4648   -4.9762 C.2       5 UNK         0.5014 
     38 O          29.7696    4.5138   -4.6503 O.2       5 UNK        -0.5248 
     39 N          28.9938    3.1207   -6.2492 N.am      6 UNK        -0.4434 
     40 CA         29.3196    3.9277   -7.4206 C.3       6 UNK         0.0363 
     41 CB         28.2405    5.0162   -7.6160 C.3       6 UNK        -0.1936 
     42 C          29.4773    3.0150   -8.6456 C.2       6 UNK         0.5081 
     43 O          29.6762    1.8052   -8.4979 O.2       6 UNK        -0.5248 
     44 N          29.3775    3.6050   -9.8452 N.am      7 UNK        -0.4718 
     45 CA         29.5084    2.9496  -11.1532 C.3       7 UNK         0.0273 
     46 CB         29.3286    3.9963  -12.2636 C.3       7 UNK        -0.1935 
     47 C          28.5594    1.7590  -11.3811 C.2       7 UNK         0.5018 
     48 O          28.9205    0.8472  -12.1240 O.2       7 UNK        -0.5186 
     49 N          27.4096    1.7451  -10.6906 N.am      8 UNK        -0.4240 
     50 CA         26.4597    0.6271  -10.6383 C.3       8 UNK         0.0235 
     51 CB         25.2595    1.0292   -9.7663 C.3       8 UNK        -0.2000 
     52 C          27.0716   -0.6889  -10.1175 C.2       8 UNK         0.4941 
     53 O          26.6405   -1.7605  -10.5437 O.2       8 UNK        -0.5273 
     54 N          28.0724   -0.5820   -9.2336 N.am      9 UNK        -0.4262 
     55 CA         28.8626   -1.6955   -8.7074 C.3       9 UNK         0.0264 
     56 CB         28.9378   -1.5442   -7.1812 C.3       9 UNK        -0.1955 
     57 C          30.2831   -1.7286   -9.3007 C.2       9 UNK         0.5031 
     58 O          31.1072   -2.5104   -8.8242 O.2       9 UNK        -0.5390 
     59 N          30.5668   -0.8564  -10.2823 N.am      10 UNK        -0.4204 
     60 CA         31.8895   -0.5376  -10.8365 C.3       10 UNK         0.0237 
     61 CB         32.4753   -1.7412  -11.6055 C.3       10 UNK        -0.1985 
     62 C          32.8664    0.0406   -9.7879 C.2       10 UNK         0.4970 
     63 O          34.0805   -0.0994   -9.9455 O.2       10 UNK        -0.4914 
     64 N          32.3260    0.6852   -8.7440 N.am      11 UNK        -0.4285 
     65 CA         33.0823    1.2985   -7.6435 C.3       11 UNK         0.1007 
     66 C          33.6245    2.7232   -7.9675 C.2       11 UNK         0.5703 
     67 N          33.2293    3.3509   -9.0699 N.am      11 UNK        -0.7361 
     68 O          34.4321    3.2652   -7.2176 O.2       11 UNK        -0.4986 
     69 C69        32.2542    1.2662   -6.3279 C.3       12 UNK        -0.0947 
     70 S70        33.2972    1.0994   -4.8423 S.3       12 UNK        -0.2240 
     71 C71        32.9450   -0.6114   -4.3156 C.3       12 UNK         0.0194 
     72 H72        27.6737   -9.9307   -0.8591 H         1 UNK         0.0906 
     73 H73        26.1872   -9.6277   -1.7623 H         1 UNK         0.0906 
     74 H74        27.7460   -9.1582   -2.4438 H         1 UNK         0.0906 
     75 H75        28.1129   -6.9429   -2.2972 H         1 UNK         0.3140 
     76 H76        27.6747   -5.4980    0.1612 H         1 UNK         0.1085 
     77 H77        29.6894   -5.0049   -0.9782 H         1 UNK         0.0836 
     78 H78        28.7140   -3.5805   -1.0774 H         1 UNK         0.0836 
     79 H79        27.5097   -2.7931   -3.3142 H         1 UNK         0.0731 
     80 H80        28.3855   -2.9639   -4.8098 H         1 UNK         0.0731 
     81 H81        30.9431   -2.4098   -4.8044 H         1 UNK         0.1312 
     82 H82        31.9883    0.8438   -2.2124 H         1 UNK         0.1406 
     83 H83        28.2288   -1.1588   -1.7293 H         1 UNK         0.1631 
     84 H84        30.5795    1.4702   -0.3962 H         1 UNK         0.0717 
     85 H85        29.4448    0.2714    0.1743 H         1 UNK         0.0717 
     86 H86        28.6859    4.0077   -2.3008 H         1 UNK         0.0934 
     87 H87        30.1286    3.0329   -2.3366 H         1 UNK         0.0934 
     88 H88        29.1857    1.5458   -4.0529 H         1 UNK         0.0739 
     89 H89        26.6665    2.6719   -3.3023 H         1 UNK         0.3093 
     90 H90        24.8366    1.5039   -3.7723 H         1 UNK         0.0818 
     91 H91        24.6556    3.3483   -5.4530 H         1 UNK         0.0819 
     92 H92        24.6272    2.1784   -6.7622 H         1 UNK         0.0819 
     93 H93        23.3040    2.2378   -5.5981 H         1 UNK         0.0819 
     94 H94        24.2364   -0.1617   -6.0407 H         1 UNK         0.3041 
     95 H95        23.5111   -2.3645   -5.3361 H         1 UNK         0.0784 
     96 H96        25.4350   -2.0888   -6.9732 H         1 UNK         0.0793 
     97 H97        26.4130   -3.1326   -5.9526 H         1 UNK         0.0793 
     98 H98        24.9659   -3.7601   -6.7260 H         1 UNK         0.0793 
     99 H99        25.3996   -4.1724   -4.0419 H         1 UNK         0.3024 
    100 H100       23.5519   -4.5979   -1.0993 H         1 UNK         0.1171 
    101 H101       23.3991   -6.4998   -3.5011 H         1 UNK         0.0786 
    102 H102       23.1475   -6.9422   -1.8116 H         1 UNK         0.0786 
    103 H103       22.0236   -5.8588   -2.6136 H         1 UNK         0.0786 
    104 H104       25.5823   -6.2040   -2.3746 H         1 UNK         0.2977 
    105 H105       28.5416    2.2259   -6.4365 H         1 UNK         0.3127 
    106 H106       30.2877    4.4065   -7.2594 H         1 UNK         0.0770 
    107 H107       27.2706    4.5809   -7.8603 H         1 UNK         0.0814 
    108 H108       28.5049    5.7116   -8.4129 H         1 UNK         0.0814 
    109 H109       28.1134    5.6158   -6.7145 H         1 UNK         0.0814 
    110 H110       29.2115    4.6012   -9.8666 H         1 UNK         0.2983 
    111 H111       30.5258    2.5594  -11.2170 H         1 UNK         0.0947 
    112 H112       29.4453    3.5445  -13.2499 H         1 UNK         0.0806 
    113 H113       30.0709    4.7909  -12.1857 H         1 UNK         0.0806 
    114 H114       28.3394    4.4548  -12.2306 H         1 UNK         0.0806 
    115 H115       27.2051    2.5415  -10.1053 H         1 UNK         0.3000 
    116 H116       26.1069    0.4461  -11.6558 H         1 UNK         0.0850 
    117 H117       25.5642    1.2300   -8.7386 H         1 UNK         0.0810 
    118 H118       24.5150    0.2323   -9.7354 H         1 UNK         0.0810 
    119 H119       24.7636    1.9195  -10.1534 H         1 UNK         0.0810 
    120 H120       28.3696    0.3426   -8.9346 H         1 UNK         0.3040 
    121 H121       28.3867   -2.6504   -8.9389 H         1 UNK         0.0766 
    122 H122       29.4540   -0.6289   -6.8895 H         1 UNK         0.0812 
    123 H123       27.9449   -1.5123   -6.7364 H         1 UNK         0.0812 
    124 H124       29.4751   -2.3812   -6.7365 H         1 UNK         0.0812 
    125 H125       29.8028   -0.3049  -10.6576 H         1 UNK         0.3205 
    126 H126       31.7253    0.2608  -11.5612 H         1 UNK         0.0754 
    127 H127       33.3786   -1.4582  -12.1472 H         1 UNK         0.0769 
    128 H128       31.7667   -2.1248  -12.3395 H         1 UNK         0.0769 
    129 H129       32.7422   -2.5599  -10.9366 H         1 UNK         0.0769 
    130 H130       31.3198    0.8164   -8.7043 H         1 UNK         0.2981 
    131 H131       33.9658    0.6758   -7.4898 H         1 UNK         0.0541 
    132 H132       33.5985    4.2664   -9.2726 H         1 UNK         0.3459 
    133 H133       32.5866    2.9117   -9.7063 H         1 UNK         0.3459 
    134 H134       31.5498    0.4334   -6.3378 H         1 UNK         0.0612 
    135 H135       31.6421    2.1625   -6.2272 H         1 UNK         0.0612 
    136 H136       33.7349   -0.9331   -3.6359 H         1 UNK         0.0624 
    137 H137       32.9992   -1.2695   -5.1844 H         1 UNK         0.0624 
@<TRIPOS>BOND
     1    1    2 1    
     2    1   72 1    
     3    1   73 1    
     4    1   74 1    
     5    2    3 2    
     6    2    4 am   BACKBONE|DICT|INTERRES
     7    4    5 1    
     8    4   75 1    
     9    5    6 1    
    10    5   35 1    
    11    5   76 1    
    12    6    7 1    
    13    6   77 1    
    14    6   78 1    
    15    7    8 1    
    16    8    9 1    
    17    8   79 1    
    18    8   80 1    
    19    9   10 ar   
    20    9   14 ar   
    21   10   11 ar   
    22   10   81 1    
    23   11   12 ar   
    24   11   71 1    
    25   12   13 ar   
    26   12   82 1    
    27   13   14 ar   
    28   13   15 1    
    29   14   83 1    
    30   15   16 1    
    31   15   84 1    
    32   15   85 1    
    33   16   17 1    
    34   17   18 1    
    35   17   86 1    
    36   17   87 1    
    37   18   19 1    
    38   18   37 1    
    39   18   88 1    
    40   19   20 am   BACKBONE|DICT|INTERRES
    41   19   89 1    
    42   20   21 2    
    43   20   22 1    
    44   22   23 1    
    45   22   24 1    
    46   22   90 1    
    47   23   91 1    
    48   23   92 1    
    49   23   93 1    
    50   24   25 am   BACKBONE|DICT|INTERRES
    51   24   94 1    
    52   25   26 2    
    53   25   27 1    
    54   27   28 1    
    55   27   29 1    
    56   27   95 1    
    57   28   96 1    
    58   28   97 1    
    59   28   98 1    
    60   29   30 am   BACKBONE|DICT|INTERRES
    61   29   99 1    
    62   30   31 2    
    63   30   32 1    
    64   32   33 1    
    65   32   34 1    
    66   32  100 1    
    67   33  101 1    
    68   33  102 1    
    69   33  103 1    
    70   34   35 am   BACKBONE|DICT|INTERRES
    71   34  104 1    
    72   35   36 2    
    73   37   38 2    
    74   37   39 am   BACKBONE|DICT|INTERRES
    75   39   40 1    
    76   39  105 1    
    77   40   41 1    
    78   40   42 1    
    79   40  106 1    
    80   41  107 1    
    81   41  108 1    
    82   41  109 1    
    83   42   43 2    
    84   42   44 am   BACKBONE|DICT|INTERRES
    85   44   45 1    
    86   44  110 1    
    87   45   46 1    
    88   45   47 1    
    89   45  111 1    
    90   46  112 1    
    91   46  113 1    
    92   46  114 1    
    93   47   48 2    
    94   47   49 am   BACKBONE|DICT|INTERRES
    95   49   50 1    
    96   49  115 1    
    97   50   51 1    
    98   50   52 1    
    99   50  116 1    
   100   51  117 1    
   101   51  118 1    
   102   51  119 1    
   103   52   53 2    
   104   52   54 am   BACKBONE|DICT|INTERRES
   105   54   55 1    
   106   54  120 1    
   107   55   56 1    
   108   55   57 1    
   109   55  121 1    
   110   56  122 1    
   111   56  123 1    
   112   56  124 1    
   113   57   58 2    
   114   57   59 am   BACKBONE|DICT|INTERRES
   115   59   60 1    
   116   59  125 1    
   117   60   61 1    
   118   60   62 1    
   119   60  126 1    
   120   61  127 1    
   121   61  128 1    
   122   61  129 1    
   123   62   63 2    
   124   62   64 am   BACKBONE|DICT|INTERRES
   125   64   65 1    
   126   64  130 1    
   127   65   66 1    
   128   65   69 1    
   129   65  131 1    
   130   66   67 am   BACKBONE|DICT|INTERRES
   131   66   68 2    
   132   67  132 1    
   133   67  133 1    
   134   69   70 1    
   135   69  134 1    
   136   69  135 1    
   137   70   71 1    
   138   71  136 1    
   139   71  137 1    
@<TRIPOS>SUBSTRUCTURE
     1 UNK         1 GROUP             0       ****    0 ROOT    
