@<TRIPOS>MOLECULE
3R137
137   139    1
SMALL
USER_CHARGES


@<TRIPOS>ATOM
      1 CA         29.5725   -0.5924    3.3179 C.3       0 UNK        -0.2020 
      2 C          29.0405   -0.6007    1.8923 C.2       0 UNK         0.4855 
      3 O          29.0588    0.4353    1.2266 O.2       0 UNK        -0.5197 
      4 N          28.5744   -1.7623    1.4166 N.am      1 UNK        -0.4892 
      5 CA         27.9590   -1.9345    0.0961 C.3       1 UNK         0.0835 
      6 C6         28.0013   -3.4196   -0.3525 C.3       12 UNK        -0.0855 
      7 S7         28.1653   -3.5787   -2.1629 S.3       12 UNK        -0.2931 
      8 C8         29.9016   -4.1130   -2.2946 C.3       12 UNK         0.0378 
      9 C9         30.3744   -4.1500   -3.7403 C.ar      12 UNK        -0.0802 
     10 C10        31.3937   -3.2974   -4.1731 C.ar      12 UNK        -0.0944 
     11 C11        31.8386   -3.3297   -5.4996 C.ar      12 UNK        -0.0787 
     12 C12        31.2540   -4.2341   -6.3948 C.ar      12 UNK        -0.0862 
     13 C13        30.2451   -5.1059   -5.9688 C.ar      12 UNK        -0.0733 
     14 C14        29.8127   -5.0587   -4.6403 C.ar      12 UNK        -0.0832 
     15 C15        29.6526   -6.1366   -6.9226 C.3       12 UNK         0.0240 
     16 S16        28.5287   -5.4152   -8.1616 S.3       12 UNK        -0.2522 
     17 C17        27.1918   -4.7040   -7.1369 C.3       12 UNK        -0.0967 
     18 CA         26.7997   -3.2749   -7.5875 C.3       5 UNK         0.0660 
     19 N          25.5144   -2.8530   -7.0186 N.am      5 UNK        -0.4015 
     20 C          24.8802   -1.7066   -7.3062 C.2       4 UNK         0.4946 
     21 O          25.3392   -0.8405   -8.0519 O.2       4 UNK        -0.5353 
     22 CA         23.5263   -1.4514   -6.6344 C.3       4 UNK         0.0277 
     23 CB         22.9047   -2.6829   -5.9420 C.3       4 UNK        -0.1981 
     24 N          23.7272   -0.3921   -5.6567 N.am      4 UNK        -0.4209 
     25 C          22.9117    0.6328   -5.4026 C.2       3 UNK         0.4942 
     26 O          21.8354    0.8136   -5.9753 O.2       3 UNK        -0.5208 
     27 CA         23.3845    1.6013   -4.2960 C.3       3 UNK         0.0250 
     28 CB         22.4001    2.7628   -4.0628 C.3       3 UNK        -0.1990 
     29 N          23.6293    0.9184   -3.0193 N.am      3 UNK        -0.4232 
     30 C          24.6672    0.1149   -2.7505 C.2       2 UNK         0.4993 
     31 O          25.5650   -0.1400   -3.5610 O.2       2 UNK        -0.5286 
     32 CA         24.6723   -0.5612   -1.3768 C.3       2 UNK         0.0209 
     33 CB         23.6484   -1.7130   -1.3336 C.3       2 UNK        -0.1931 
     34 N          26.0128   -1.0791   -1.1211 N.am      2 UNK        -0.4546 
     35 C          26.5178   -1.3783    0.0786 C.2       1 UNK         0.5154 
     36 O          25.8835   -1.2617    1.1319 O.2       1 UNK        -0.5181 
     37 C          27.9337   -2.2535   -7.3559 C.2       5 UNK         0.5014 
     38 O          28.6688   -1.9611   -8.2986 O.2       5 UNK        -0.5248 
     39 N          28.0268   -1.6845   -6.1437 N.am      6 UNK        -0.4434 
     40 CA         29.0434   -0.6818   -5.8113 C.3       6 UNK         0.0363 
     41 CB         29.0596   -0.4110   -4.2999 C.3       6 UNK        -0.1936 
     42 C          28.8889    0.6317   -6.5950 C.2       6 UNK         0.5081 
     43 O          29.8948    1.2316   -6.9768 O.2       6 UNK        -0.5248 
     44 N          27.6367    1.0366   -6.8482 N.am      7 UNK        -0.4718 
     45 CA         27.2972    2.1981   -7.6704 C.3       7 UNK         0.0273 
     46 CB         25.8445    2.6224   -7.4019 C.3       7 UNK        -0.1935 
     47 C          27.5289    1.9316   -9.1655 C.2       7 UNK         0.5018 
     48 O          28.0445    2.8100   -9.8559 O.2       7 UNK        -0.5186 
     49 N          27.1760    0.7235   -9.6298 N.am      8 UNK        -0.4240 
     50 CA         27.3983    0.2573  -11.0015 C.3       8 UNK         0.0235 
     51 CB         26.6619   -1.0735  -11.2237 C.3       8 UNK        -0.2000 
     52 C          28.8907    0.1231  -11.3494 C.2       8 UNK         0.4941 
     53 O          29.3008    0.5561  -12.4270 O.2       8 UNK        -0.5273 
     54 N          29.6775   -0.4465  -10.4253 N.am      9 UNK        -0.4262 
     55 CA         31.1364   -0.5464  -10.5184 C.3       9 UNK         0.0264 
     56 CB         31.6400   -1.5593   -9.4766 C.3       9 UNK        -0.1955 
     57 C          31.8480    0.8042  -10.3245 C.2       9 UNK         0.5031 
     58 O          32.9670    0.9639  -10.8138 O.2       9 UNK        -0.5390 
     59 N          31.1988    1.7299   -9.6013 N.am      10 UNK        -0.4204 
     60 CA         31.6852    3.0477   -9.1779 C.3       10 UNK         0.0237 
     61 CB         31.8921    3.9795  -10.3908 C.3       10 UNK        -0.1985 
     62 C          32.9219    2.9505   -8.2628 C.2       10 UNK         0.4970 
     63 O          33.8248    3.7846   -8.3544 O.2       10 UNK        -0.4914 
     64 N          32.9413    1.9240   -7.4032 N.am      11 UNK        -0.4285 
     65 CA         34.0339    1.6343   -6.4627 C.3       11 UNK         0.1007 
     66 C          33.9782    2.4498   -5.1377 C.2       11 UNK         0.5703 
     67 N          32.9120    3.1904   -4.8562 N.am      11 UNK        -0.7361 
     68 O          34.9303    2.4256   -4.3610 O.2       11 UNK        -0.4986 
     69 C69        34.1881    0.1085   -6.2226 C.3       12 UNK        -0.0947 
     70 S70        32.6938   -0.6739   -5.5334 S.3       12 UNK        -0.2240 
     71 C71        32.9796   -2.4232   -5.9528 C.3       12 UNK         0.0194 
     72 H72        29.5122   -1.5765    3.7824 H         1 UNK         0.0906 
     73 H73        30.6154   -0.2767    3.3276 H         1 UNK         0.0906 
     74 H74        28.9994    0.1057    3.9275 H         1 UNK         0.0906 
     75 H75        28.5431   -2.5686    2.0244 H         1 UNK         0.3140 
     76 H76        28.5485   -1.3394   -0.6063 H         1 UNK         0.1085 
     77 H77        28.8446   -3.9343    0.1113 H         1 UNK         0.0836 
     78 H78        27.1168   -3.9693   -0.0230 H         1 UNK         0.0836 
     79 H79        30.5270   -3.4399   -1.7057 H         1 UNK         0.0731 
     80 H80        30.0105   -5.1051   -1.8539 H         1 UNK         0.0731 
     81 H81        31.8461   -2.6047   -3.4767 H         1 UNK         0.1312 
     82 H82        31.5931   -4.2750   -7.4209 H         1 UNK         0.1406 
     83 H83        29.0373   -5.7314   -4.2991 H         1 UNK         0.1631 
     84 H84        29.1179   -6.9117   -6.3712 H         1 UNK         0.0717 
     85 H85        30.4642   -6.6454   -7.4446 H         1 UNK         0.0717 
     86 H86        26.3337   -5.3716   -7.2301 H         1 UNK         0.0934 
     87 H87        27.4619   -4.7147   -6.0807 H         1 UNK         0.0934 
     88 H88        26.6365   -3.3119   -8.6666 H         1 UNK         0.0739 
     89 H89        25.0667   -3.5001   -6.3866 H         1 UNK         0.3093 
     90 H90        22.8469   -1.1108   -7.4187 H         1 UNK         0.0818 
     91 H91        21.9122   -2.4470   -5.5570 H         1 UNK         0.0819 
     92 H92        22.7834   -3.5125   -6.6399 H         1 UNK         0.0819 
     93 H93        23.5033   -3.0308   -5.0991 H         1 UNK         0.0819 
     94 H94        24.5813   -0.4405   -5.1046 H         1 UNK         0.3041 
     95 H95        24.3280    2.0336   -4.6340 H         1 UNK         0.0784 
     96 H96        22.2316    3.3232   -4.9835 H         1 UNK         0.0793 
     97 H97        21.4295    2.4067   -3.7150 H         1 UNK         0.0793 
     98 H98        22.7844    3.4671   -3.3246 H         1 UNK         0.0793 
     99 H99        22.9169    1.0365   -2.3130 H         1 UNK         0.3024 
    100 H100       24.4256    0.1881   -0.6208 H         1 UNK         0.1171 
    101 H101       23.8751   -2.4785   -2.0770 H         1 UNK         0.0786 
    102 H102       22.6378   -1.3540   -1.5319 H         1 UNK         0.0786 
    103 H103       23.6297   -2.1941   -0.3556 H         1 UNK         0.0786 
    104 H104       26.5807   -1.1816   -1.9543 H         1 UNK         0.2977 
    105 H105       27.3875   -1.9575   -5.4118 H         1 UNK         0.3127 
    106 H106       30.0038   -1.1125   -6.0911 H         1 UNK         0.0770 
    107 H107       29.2400   -1.3239   -3.7354 H         1 UNK         0.0814 
    108 H108       28.1232    0.0248   -3.9540 H         1 UNK         0.0814 
    109 H109       29.8578    0.2866   -4.0427 H         1 UNK         0.0814 
    110 H110       26.8721    0.4531   -6.5408 H         1 UNK         0.2983 
    111 H111       27.9491    3.0254   -7.3798 H         1 UNK         0.0947 
    112 H112       25.5680    3.4768   -8.0211 H         1 UNK         0.0806 
    113 H113       25.7096    2.9222   -6.3634 H         1 UNK         0.0806 
    114 H114       25.1372    1.8212   -7.6186 H         1 UNK         0.0806 
    115 H115       26.6999    0.0828   -8.9983 H         1 UNK         0.3000 
    116 H116       26.9668    1.0005  -11.6754 H         1 UNK         0.0850 
    117 H117       26.7701   -1.4113  -12.2551 H         1 UNK         0.0810 
    118 H118       25.5948   -0.9748  -11.0234 H         1 UNK         0.0810 
    119 H119       27.0509   -1.8622  -10.5798 H         1 UNK         0.0810 
    120 H120       29.2467   -0.8580   -9.5964 H         1 UNK         0.3040 
    121 H121       31.3920   -0.9180  -11.5129 H         1 UNK         0.0766 
    122 H122       32.7232   -1.6754   -9.5328 H         1 UNK         0.0812 
    123 H123       31.1978   -2.5435   -9.6331 H         1 UNK         0.0812 
    124 H124       31.3963   -1.2441   -8.4609 H         1 UNK         0.0812 
    125 H125       30.3069    1.4627   -9.2040 H         1 UNK         0.3205 
    126 H126       30.8905    3.4773   -8.5662 H         1 UNK         0.0754 
    127 H127       32.1201    4.9962  -10.0686 H         1 UNK         0.0769 
    128 H128       30.9937    4.0293  -11.0065 H         1 UNK         0.0769 
    129 H129       32.7153    3.6465  -11.0236 H         1 UNK         0.0769 
    130 H130       32.1253    1.3280   -7.3356 H         1 UNK         0.2981 
    131 H131       34.9617    1.9531   -6.9414 H         1 UNK         0.0541 
    132 H132       32.1229    3.2035   -5.4819 H         1 UNK         0.3459 
    133 H133       32.8901    3.7204   -3.9997 H         1 UNK         0.3459 
    134 H134       35.0298   -0.0985   -5.5593 H         1 UNK         0.0612 
    135 H135       34.4273   -0.3792   -7.1689 H         1 UNK         0.0612 
    136 H136       33.1317   -2.5075   -7.0294 H         1 UNK         0.0624 
    137 H137       33.9040   -2.7560   -5.4790 H         1 UNK         0.0624 
@<TRIPOS>BOND
     1    1    2 1    
     2    1   72 1    
     3    1   73 1    
     4    1   74 1    
     5    2    3 2    
     6    2    4 am   BACKBONE|DICT|INTERRES
     7    4    5 1    
     8    4   75 1    
     9    5    6 1    
    10    5   35 1    
    11    5   76 1    
    12    6    7 1    
    13    6   77 1    
    14    6   78 1    
    15    7    8 1    
    16    8    9 1    
    17    8   79 1    
    18    8   80 1    
    19    9   10 ar   
    20    9   14 ar   
    21   10   11 ar   
    22   10   81 1    
    23   11   12 ar   
    24   11   71 1    
    25   12   13 ar   
    26   12   82 1    
    27   13   14 ar   
    28   13   15 1    
    29   14   83 1    
    30   15   16 1    
    31   15   84 1    
    32   15   85 1    
    33   16   17 1    
    34   17   18 1    
    35   17   86 1    
    36   17   87 1    
    37   18   19 1    
    38   18   37 1    
    39   18   88 1    
    40   19   20 am   BACKBONE|DICT|INTERRES
    41   19   89 1    
    42   20   21 2    
    43   20   22 1    
    44   22   23 1    
    45   22   24 1    
    46   22   90 1    
    47   23   91 1    
    48   23   92 1    
    49   23   93 1    
    50   24   25 am   BACKBONE|DICT|INTERRES
    51   24   94 1    
    52   25   26 2    
    53   25   27 1    
    54   27   28 1    
    55   27   29 1    
    56   27   95 1    
    57   28   96 1    
    58   28   97 1    
    59   28   98 1    
    60   29   30 am   BACKBONE|DICT|INTERRES
    61   29   99 1    
    62   30   31 2    
    63   30   32 1    
    64   32   33 1    
    65   32   34 1    
    66   32  100 1    
    67   33  101 1    
    68   33  102 1    
    69   33  103 1    
    70   34   35 am   BACKBONE|DICT|INTERRES
    71   34  104 1    
    72   35   36 2    
    73   37   38 2    
    74   37   39 am   BACKBONE|DICT|INTERRES
    75   39   40 1    
    76   39  105 1    
    77   40   41 1    
    78   40   42 1    
    79   40  106 1    
    80   41  107 1    
    81   41  108 1    
    82   41  109 1    
    83   42   43 2    
    84   42   44 am   BACKBONE|DICT|INTERRES
    85   44   45 1    
    86   44  110 1    
    87   45   46 1    
    88   45   47 1    
    89   45  111 1    
    90   46  112 1    
    91   46  113 1    
    92   46  114 1    
    93   47   48 2    
    94   47   49 am   BACKBONE|DICT|INTERRES
    95   49   50 1    
    96   49  115 1    
    97   50   51 1    
    98   50   52 1    
    99   50  116 1    
   100   51  117 1    
   101   51  118 1    
   102   51  119 1    
   103   52   53 2    
   104   52   54 am   BACKBONE|DICT|INTERRES
   105   54   55 1    
   106   54  120 1    
   107   55   56 1    
   108   55   57 1    
   109   55  121 1    
   110   56  122 1    
   111   56  123 1    
   112   56  124 1    
   113   57   58 2    
   114   57   59 am   BACKBONE|DICT|INTERRES
   115   59   60 1    
   116   59  125 1    
   117   60   61 1    
   118   60   62 1    
   119   60  126 1    
   120   61  127 1    
   121   61  128 1    
   122   61  129 1    
   123   62   63 2    
   124   62   64 am   BACKBONE|DICT|INTERRES
   125   64   65 1    
   126   64  130 1    
   127   65   66 1    
   128   65   69 1    
   129   65  131 1    
   130   66   67 am   BACKBONE|DICT|INTERRES
   131   66   68 2    
   132   67  132 1    
   133   67  133 1    
   134   69   70 1    
   135   69  134 1    
   136   69  135 1    
   137   70   71 1    
   138   71  136 1    
   139   71  137 1    
@<TRIPOS>SUBSTRUCTURE
     1 UNK         1 GROUP             0       ****    0 ROOT    
