@<TRIPOS>MOLECULE
3R137
137   139    1
SMALL
USER_CHARGES


@<TRIPOS>ATOM
      1 CA         29.2843   -5.1690    1.6322 C.3       0 UNK        -0.2020 
      2 C          29.0753   -3.6638    1.5589 C.2       0 UNK         0.4855 
      3 O          29.6494   -2.9268    2.3608 O.2       0 UNK        -0.5197 
      4 N          28.2601   -3.2044    0.6037 N.am      1 UNK        -0.4892 
      5 CA         27.9198   -1.7932    0.4007 C.3       1 UNK         0.0835 
      6 C6         29.0653   -0.9508   -0.2312 C.3       12 UNK        -0.0855 
      7 S7         29.5092   -1.3815   -1.9518 S.3       12 UNK        -0.2931 
      8 C8         30.7917   -2.6489   -1.6955 C.3       12 UNK         0.0378 
      9 C9         31.2972   -3.1932   -3.0221 C.ar      12 UNK        -0.0802 
     10 C10        32.6426   -3.0573   -3.3764 C.ar      12 UNK        -0.0944 
     11 C11        33.1006   -3.5154   -4.6155 C.ar      12 UNK        -0.0787 
     12 C12        32.2023   -4.1286   -5.4954 C.ar      12 UNK        -0.0862 
     13 C13        30.8582   -4.2873   -5.1435 C.ar      12 UNK        -0.0733 
     14 C14        30.4145   -3.8272   -3.9019 C.ar      12 UNK        -0.0832 
     15 C15        29.8894   -4.9590   -6.1044 C.3       12 UNK         0.0240 
     16 S16        29.2270   -3.7810   -7.3216 S.3       12 UNK        -0.2522 
     17 C17        27.8794   -2.9833   -6.3854 C.3       12 UNK        -0.0967 
     18 CA         27.2038   -1.8613   -7.2146 C.3       5 UNK         0.0660 
     19 N          25.7796   -1.7078   -6.9042 N.am      5 UNK        -0.4015 
     20 C          24.9029   -1.0779   -7.7006 C.2       4 UNK         0.4946 
     21 O          25.2008   -0.5759   -8.7833 O.2       4 UNK        -0.5353 
     22 CA         23.4580   -0.9486   -7.1920 C.3       4 UNK         0.0277 
     23 CB         22.6770   -2.2500   -7.4344 C.3       4 UNK        -0.1981 
     24 N          23.3889   -0.5849   -5.7764 N.am      4 UNK        -0.4209 
     25 C          23.8307    0.5759   -5.2711 C.2       3 UNK         0.4942 
     26 O          24.2852    1.4917   -5.9544 O.2       3 UNK        -0.5208 
     27 CA         23.8041    0.7228   -3.7408 C.3       3 UNK         0.0250 
     28 CB         22.4625    1.3148   -3.2805 C.3       3 UNK        -0.1990 
     29 N          24.0635   -0.5275   -3.0182 N.am      3 UNK        -0.4232 
     30 C          25.1716   -1.2721   -3.1383 C.2       2 UNK         0.4993 
     31 O          26.0932   -1.0224   -3.9205 O.2       2 UNK        -0.5286 
     32 CA         25.2462   -2.5357   -2.2701 C.3       2 UNK         0.0209 
     33 CB         25.2955   -3.7958   -3.1510 C.3       2 UNK        -0.1931 
     34 N          26.4275   -2.5028   -1.4110 N.am      2 UNK        -0.4546 
     35 C          26.5859   -1.6853   -0.3587 C.2       1 UNK         0.5154 
     36 O          25.7143   -0.9137    0.0449 O.2       1 UNK        -0.5181 
     37 C          27.9476   -0.5194   -7.0864 C.2       5 UNK         0.5014 
     38 O          28.7661   -0.1981   -7.9481 O.2       5 UNK        -0.5248 
     39 N          27.6158    0.2643   -6.0493 N.am      6 UNK        -0.4434 
     40 CA         28.1230    1.6248   -5.8466 C.3       6 UNK         0.0363 
     41 CB         27.6342    2.1599   -4.4928 C.3       6 UNK        -0.1936 
     42 C          27.7520    2.5893   -6.9883 C.2       6 UNK         0.5081 
     43 O          28.5483    3.4676   -7.3145 O.2       6 UNK        -0.5248 
     44 N          26.5715    2.4026   -7.5924 N.am      7 UNK        -0.4718 
     45 CA         26.1365    3.1274   -8.7839 C.3       7 UNK         0.0273 
     46 CB         24.6050    3.0546   -8.9050 C.3       7 UNK        -0.1935 
     47 C          26.8172    2.6077  -10.0612 C.2       7 UNK         0.5018 
     48 O          27.4007    3.4036  -10.7977 O.2       7 UNK        -0.5186 
     49 N          26.7040    1.2972  -10.3222 N.am      8 UNK        -0.4240 
     50 CA         27.1016    0.6804  -11.5905 C.3       8 UNK         0.0235 
     51 CB         26.3926   -0.6745  -11.7499 C.3       8 UNK        -0.2000 
     52 C          28.6170    0.5052  -11.7651 C.2       8 UNK         0.4941 
     53 O          29.1183    0.7357  -12.8666 O.2       8 UNK        -0.5273 
     54 N          29.3115    0.0705  -10.7063 N.am      9 UNK        -0.4262 
     55 CA         30.7271   -0.3097  -10.7441 C.3       9 UNK         0.0264 
     56 CB         30.8693   -1.7313  -10.1706 C.3       9 UNK        -0.1955 
     57 C          31.6280    0.6684   -9.9757 C.2       9 UNK         0.5031 
     58 O          32.8348    0.4291   -9.9116 O.2       9 UNK        -0.5390 
     59 N          31.0493    1.7177   -9.3717 N.am      10 UNK        -0.4204 
     60 CA         31.6711    2.7593   -8.5356 C.3       10 UNK         0.0237 
     61 CB         32.7579    3.5360   -9.3059 C.3       10 UNK        -0.1985 
     62 C          32.2024    2.2634   -7.1756 C.2       10 UNK         0.4970 
     63 O          32.1035    2.9974   -6.1921 O.2       10 UNK        -0.4914 
     64 N          32.7584    1.0478   -7.1429 N.am      11 UNK        -0.4285 
     65 CA         33.2858    0.3613   -5.9586 C.3       11 UNK         0.1007 
     66 C          32.2209    0.1066   -4.8544 C.2       11 UNK         0.5703 
     67 N          31.0216   -0.3405   -5.2051 N.am      11 UNK        -0.7361 
     68 O          32.4830    0.3402   -3.6771 O.2       11 UNK        -0.4986 
     69 C69        34.0261   -0.9348   -6.3833 C.3       12 UNK        -0.0947 
     70 S70        35.1033   -1.6145   -5.0765 S.3       12 UNK        -0.2240 
     71 C71        34.5662   -3.3561   -5.0028 C.3       12 UNK         0.0194 
     72 H72        30.3409   -5.4064    1.5106 H         1 UNK         0.0906 
     73 H73        28.9599   -5.5460    2.6018 H         1 UNK         0.0906 
     74 H74        28.7277   -5.6980    0.8589 H         1 UNK         0.0906 
     75 H75        27.7611   -3.8594    0.0179 H         1 UNK         0.3140 
     76 H76        27.7240   -1.3716    1.3898 H         1 UNK         0.1085 
     77 H77        28.7832    0.1035   -0.2233 H         1 UNK         0.0836 
     78 H78        29.9599   -1.0091    0.3904 H         1 UNK         0.0836 
     79 H79        31.6081   -2.2180   -1.1140 H         1 UNK         0.0731 
     80 H80        30.3900   -3.4753   -1.1106 H         1 UNK         0.0731 
     81 H81        33.3322   -2.5692   -2.7013 H         1 UNK         0.1312 
     82 H82        32.5459   -4.4816   -6.4582 H         1 UNK         0.1406 
     83 H83        29.3751   -3.9396   -3.6265 H         1 UNK         0.1631 
     84 H84        29.0698   -5.4338   -5.5627 H         1 UNK         0.0717 
     85 H85        30.4034   -5.7598   -6.6380 H         1 UNK         0.0717 
     86 H86        27.1555   -3.7644   -6.1485 H         1 UNK         0.0934 
     87 H87        28.2486   -2.6124   -5.4269 H         1 UNK         0.0934 
     88 H88        27.2513   -2.1464   -8.2686 H         1 UNK         0.0739 
     89 H89        25.4792   -2.0137   -5.9901 H         1 UNK         0.3093 
     90 H90        22.9782   -0.1516   -7.7647 H         1 UNK         0.0818 
     91 H91        21.6277   -2.1396   -7.1602 H         1 UNK         0.0819 
     92 H92        22.7059   -2.5298   -8.4886 H         1 UNK         0.0819 
     93 H93        23.0874   -3.0847   -6.8648 H         1 UNK         0.0819 
     94 H94        23.0158   -1.2736   -5.1397 H         1 UNK         0.3041 
     95 H95        24.5946    1.4233   -3.4663 H         1 UNK         0.0784 
     96 H96        22.2578    2.2580   -3.7895 H         1 UNK         0.0793 
     97 H97        21.6291    0.6434   -3.4912 H         1 UNK         0.0793 
     98 H98        22.4659    1.5220   -2.2101 H         1 UNK         0.0793 
     99 H99        23.3632   -0.8069   -2.3460 H         1 UNK         0.3024 
    100 H100       24.3593   -2.5932   -1.6347 H         1 UNK         0.1171 
    101 H101       24.4264   -3.8495   -3.8081 H         1 UNK         0.0786 
    102 H102       25.2971   -4.7021   -2.5451 H         1 UNK         0.0786 
    103 H103       26.1849   -3.8150   -3.7820 H         1 UNK         0.0786 
    104 H104       27.2354   -3.0079   -1.7430 H         1 UNK         0.2977 
    105 H105       26.9712   -0.0970   -5.3491 H         1 UNK         0.3127 
    106 H106       29.2122    1.5716   -5.8155 H         1 UNK         0.0770 
    107 H107       26.5516    2.2808   -4.4778 H         1 UNK         0.0814 
    108 H108       28.0741    3.1349   -4.2801 H         1 UNK         0.0814 
    109 H109       27.9115    1.4915   -3.6769 H         1 UNK         0.0814 
    110 H110       25.9277    1.7200   -7.2070 H         1 UNK         0.2983 
    111 H111       26.4096    4.1789   -8.6683 H         1 UNK         0.0947 
    112 H112       24.2566    3.5869   -9.7910 H         1 UNK         0.0806 
    113 H113       24.1202    3.5099   -8.0412 H         1 UNK         0.0806 
    114 H114       24.2493    2.0264   -8.9792 H         1 UNK         0.0806 
    115 H115       26.1994    0.7010   -9.6676 H         1 UNK         0.3000 
    116 H116       26.7552    1.3291  -12.3984 H         1 UNK         0.0850 
    117 H117       26.6349   -1.1332  -12.7096 H         1 UNK         0.0810 
    118 H118       25.3090   -0.5625  -11.7084 H         1 UNK         0.0810 
    119 H119       26.6853   -1.3775  -10.9688 H         1 UNK         0.0810 
    120 H120       28.8452   -0.0621   -9.8101 H         1 UNK         0.3040 
    121 H121       31.0911   -0.3282  -11.7732 H         1 UNK         0.0766 
    122 H122       31.8938   -2.0933  -10.2658 H         1 UNK         0.0812 
    123 H123       30.2271   -2.4391  -10.6945 H         1 UNK         0.0812 
    124 H124       30.6117   -1.7657   -9.1119 H         1 UNK         0.0812 
    125 H125       30.0431    1.7792   -9.4458 H         1 UNK         0.3205 
    126 H126       30.8762    3.4707   -8.3156 H         1 UNK         0.0754 
    127 H127       33.1186    4.3812   -8.7183 H         1 UNK         0.0769 
    128 H128       32.3703    3.9352  -10.2431 H         1 UNK         0.0769 
    129 H129       33.6227    2.9137   -9.5375 H         1 UNK         0.0769 
    130 H130       32.8398    0.5575   -8.0285 H         1 UNK         0.2981 
    131 H131       34.0282    1.0370   -5.5296 H         1 UNK         0.0541 
    132 H132       30.7964   -0.5249   -6.1692 H         1 UNK         0.3459 
    133 H133       30.3516   -0.5289   -4.4761 H         1 UNK         0.3459 
    134 H134       34.6699   -0.7290   -7.2399 H         1 UNK         0.0612 
    135 H135       33.3140   -1.6876   -6.7246 H         1 UNK         0.0612 
    136 H136       34.7675   -3.8248   -5.9673 H         1 UNK         0.0624 
    137 H137       35.1828   -3.8811   -4.2722 H         1 UNK         0.0624 
@<TRIPOS>BOND
     1    1    2 1    
     2    1   72 1    
     3    1   73 1    
     4    1   74 1    
     5    2    3 2    
     6    2    4 am   BACKBONE|DICT|INTERRES
     7    4    5 1    
     8    4   75 1    
     9    5    6 1    
    10    5   35 1    
    11    5   76 1    
    12    6    7 1    
    13    6   77 1    
    14    6   78 1    
    15    7    8 1    
    16    8    9 1    
    17    8   79 1    
    18    8   80 1    
    19    9   10 ar   
    20    9   14 ar   
    21   10   11 ar   
    22   10   81 1    
    23   11   12 ar   
    24   11   71 1    
    25   12   13 ar   
    26   12   82 1    
    27   13   14 ar   
    28   13   15 1    
    29   14   83 1    
    30   15   16 1    
    31   15   84 1    
    32   15   85 1    
    33   16   17 1    
    34   17   18 1    
    35   17   86 1    
    36   17   87 1    
    37   18   19 1    
    38   18   37 1    
    39   18   88 1    
    40   19   20 am   BACKBONE|DICT|INTERRES
    41   19   89 1    
    42   20   21 2    
    43   20   22 1    
    44   22   23 1    
    45   22   24 1    
    46   22   90 1    
    47   23   91 1    
    48   23   92 1    
    49   23   93 1    
    50   24   25 am   BACKBONE|DICT|INTERRES
    51   24   94 1    
    52   25   26 2    
    53   25   27 1    
    54   27   28 1    
    55   27   29 1    
    56   27   95 1    
    57   28   96 1    
    58   28   97 1    
    59   28   98 1    
    60   29   30 am   BACKBONE|DICT|INTERRES
    61   29   99 1    
    62   30   31 2    
    63   30   32 1    
    64   32   33 1    
    65   32   34 1    
    66   32  100 1    
    67   33  101 1    
    68   33  102 1    
    69   33  103 1    
    70   34   35 am   BACKBONE|DICT|INTERRES
    71   34  104 1    
    72   35   36 2    
    73   37   38 2    
    74   37   39 am   BACKBONE|DICT|INTERRES
    75   39   40 1    
    76   39  105 1    
    77   40   41 1    
    78   40   42 1    
    79   40  106 1    
    80   41  107 1    
    81   41  108 1    
    82   41  109 1    
    83   42   43 2    
    84   42   44 am   BACKBONE|DICT|INTERRES
    85   44   45 1    
    86   44  110 1    
    87   45   46 1    
    88   45   47 1    
    89   45  111 1    
    90   46  112 1    
    91   46  113 1    
    92   46  114 1    
    93   47   48 2    
    94   47   49 am   BACKBONE|DICT|INTERRES
    95   49   50 1    
    96   49  115 1    
    97   50   51 1    
    98   50   52 1    
    99   50  116 1    
   100   51  117 1    
   101   51  118 1    
   102   51  119 1    
   103   52   53 2    
   104   52   54 am   BACKBONE|DICT|INTERRES
   105   54   55 1    
   106   54  120 1    
   107   55   56 1    
   108   55   57 1    
   109   55  121 1    
   110   56  122 1    
   111   56  123 1    
   112   56  124 1    
   113   57   58 2    
   114   57   59 am   BACKBONE|DICT|INTERRES
   115   59   60 1    
   116   59  125 1    
   117   60   61 1    
   118   60   62 1    
   119   60  126 1    
   120   61  127 1    
   121   61  128 1    
   122   61  129 1    
   123   62   63 2    
   124   62   64 am   BACKBONE|DICT|INTERRES
   125   64   65 1    
   126   64  130 1    
   127   65   66 1    
   128   65   69 1    
   129   65  131 1    
   130   66   67 am   BACKBONE|DICT|INTERRES
   131   66   68 2    
   132   67  132 1    
   133   67  133 1    
   134   69   70 1    
   135   69  134 1    
   136   69  135 1    
   137   70   71 1    
   138   71  136 1    
   139   71  137 1    
@<TRIPOS>SUBSTRUCTURE
     1 UNK         1 GROUP             0       ****    0 ROOT    
