@<TRIPOS>MOLECULE
3R137
137   139    1
SMALL
USER_CHARGES


@<TRIPOS>ATOM
      1 CA         30.7031    0.4801    0.6950 C.3       0 UNK        -0.2020 
      2 C          29.9978   -0.4699   -0.2612 C.2       0 UNK         0.4855 
      3 O          29.9549   -0.2048   -1.4606 O.2       0 UNK        -0.5197 
      4 N          29.4554   -1.5759    0.2607 N.am      1 UNK        -0.4892 
      5 CA         28.6742   -2.5633   -0.4913 C.3       1 UNK         0.0835 
      6 C6         28.8690   -3.9770    0.1143 C.3       12 UNK        -0.0855 
      7 S7         28.5734   -5.3335   -1.0710 S.3       12 UNK        -0.2931 
      8 C8         30.2034   -5.5185   -1.8676 C.3       12 UNK         0.0378 
      9 C9         30.3057   -4.6619   -3.1211 C.ar      12 UNK        -0.0802 
     10 C10        31.0032   -3.4476   -3.1077 C.ar      12 UNK        -0.0944 
     11 C11        31.0750   -2.6519   -4.2569 C.ar      12 UNK        -0.0787 
     12 C12        30.4253   -3.0892   -5.4178 C.ar      12 UNK        -0.0862 
     13 C13        29.7611   -4.3161   -5.4603 C.ar      12 UNK        -0.0733 
     14 C14        29.7042   -5.0993   -4.3055 C.ar      12 UNK        -0.0832 
     15 C15        29.1512   -4.7984   -6.7724 C.3       12 UNK         0.0240 
     16 S16        27.3818   -5.2238   -6.6658 S.3       12 UNK        -0.2522 
     17 C17        26.6337   -3.7347   -5.9309 C.3       12 UNK        -0.0967 
     18 CA         26.3800   -2.5879   -6.9470 C.3       5 UNK         0.0660 
     19 N          25.1237   -1.8922   -6.6598 N.am      5 UNK        -0.4015 
     20 C          24.5354   -0.9857   -7.4516 C.2       4 UNK         0.4946 
     21 O          24.9617   -0.6534   -8.5575 O.2       4 UNK        -0.5353 
     22 CA         23.2721   -0.3104   -6.8912 C.3       4 UNK         0.0277 
     23 CB         22.0308   -1.1778   -7.1539 C.3       4 UNK        -0.1981 
     24 N          23.3753   -0.0145   -5.4578 N.am      4 UNK        -0.4209 
     25 C          24.2213    0.8885   -4.9421 C.2       3 UNK         0.4942 
     26 O          24.9833    1.5757   -5.6204 O.2       3 UNK        -0.5208 
     27 CA         24.2515    1.0275   -3.4110 C.3       3 UNK         0.0250 
     28 CB         23.0930    1.9143   -2.9267 C.3       3 UNK        -0.1990 
     29 N          24.2454   -0.2413   -2.6708 N.am      3 UNK        -0.4232 
     30 C          25.1297   -1.2355   -2.8322 C.2       2 UNK         0.4993 
     31 O          25.9624   -1.2789   -3.7401 O.2       2 UNK        -0.5286 
     32 CA         25.0714   -2.3933   -1.8266 C.3       2 UNK         0.0209 
     33 CB         24.3368   -3.6015   -2.4281 C.3       2 UNK        -0.1931 
     34 N          26.4337   -2.7864   -1.4645 N.am      2 UNK        -0.4546 
     35 C          27.1912   -2.1393   -0.5706 C.2       1 UNK         0.5154 
     36 O          26.7562   -1.2502    0.1682 O.2       1 UNK        -0.5181 
     37 C          27.5513   -1.5886   -6.9766 C.2       5 UNK         0.5014 
     38 O          28.3191   -1.5625   -7.9399 O.2       5 UNK        -0.5248 
     39 N          27.6313   -0.7604   -5.9267 N.am      6 UNK        -0.4434 
     40 CA         28.6181    0.2998   -5.7452 C.3       6 UNK         0.0363 
     41 CB         28.4088    0.9373   -4.3644 C.3       6 UNK        -0.1936 
     42 C          28.5749    1.3579   -6.8567 C.2       6 UNK         0.5081 
     43 O          29.6336    1.7859   -7.3156 O.2       6 UNK        -0.5248 
     44 N          27.3663    1.7398   -7.2911 N.am      7 UNK        -0.4718 
     45 CA         27.1441    2.6406   -8.4224 C.3       7 UNK         0.0273 
     46 CB         25.6682    3.0671   -8.4671 C.3       7 UNK        -0.1935 
     47 C          27.5730    2.0234   -9.7630 C.2       7 UNK         0.5018 
     48 O          28.2276    2.7055  -10.5516 O.2       7 UNK        -0.5186 
     49 N          27.2142    0.7510   -9.9926 N.am      8 UNK        -0.4240 
     50 CA         27.5476    0.0028  -11.2083 C.3       8 UNK         0.0235 
     51 CB         26.7689   -1.3225  -11.2355 C.3       8 UNK        -0.2000 
     52 C          29.0554   -0.2495  -11.3689 C.2       8 UNK         0.4941 
     53 O          29.5897   -0.0422  -12.4592 O.2       8 UNK        -0.5273 
     54 N          29.7137   -0.6824  -10.2856 N.am      9 UNK        -0.4262 
     55 CA         31.1539   -0.9557  -10.2510 C.3       9 UNK         0.0264 
     56 CB         31.4320   -1.9685   -9.1340 C.3       9 UNK        -0.1955 
     57 C          32.0200    0.3055  -10.0661 C.2       9 UNK         0.5031 
     58 O          33.2323    0.2268  -10.2675 O.2       9 UNK        -0.5390 
     59 N          31.3970    1.4276   -9.6779 N.am      10 UNK        -0.4204 
     60 CA         31.9778    2.7523   -9.4208 C.3       10 UNK         0.0237 
     61 CB         32.6977    3.3100  -10.6676 C.3       10 UNK        -0.1985 
     62 C          32.8394    2.8453   -8.1435 C.2       10 UNK         0.4970 
     63 O          33.5158    3.8578   -7.9535 O.2       10 UNK        -0.4914 
     64 N          32.7766    1.8302   -7.2720 N.am      11 UNK        -0.4285 
     65 CA         33.3407    1.8486   -5.9107 C.3       11 UNK         0.1007 
     66 C          32.4668    2.6037   -4.8683 C.2       11 UNK         0.5703 
     67 N          31.2460    3.0126   -5.1902 N.am      11 UNK        -0.7361 
     68 O          32.9212    2.8543   -3.7546 O.2       11 UNK        -0.4986 
     69 C69        33.7831    0.4404   -5.4168 C.3       12 UNK        -0.0947 
     70 S70        32.6400   -0.9213   -5.8218 S.3       12 UNK        -0.2240 
     71 C71        31.8554   -1.3329   -4.2234 C.3       12 UNK         0.0194 
     72 H72        30.2193    1.4563    0.6764 H         1 UNK         0.0906 
     73 H73        30.6891    0.1134    1.7212 H         1 UNK         0.0906 
     74 H74        31.7427    0.6096    0.3950 H         1 UNK         0.0906 
     75 H75        29.4781   -1.7106    1.2617 H         1 UNK         0.3140 
     76 H76        29.0423   -2.5700   -1.5177 H         1 UNK         0.1085 
     77 H77        29.8860   -4.0883    0.4943 H         1 UNK         0.0836 
     78 H78        28.2227   -4.1221    0.9824 H         1 UNK         0.0836 
     79 H79        31.0046   -5.2828   -1.1657 H         1 UNK         0.0731 
     80 H80        30.3416   -6.5666   -2.1378 H         1 UNK         0.0731 
     81 H81        31.4827   -3.1153   -2.1969 H         1 UNK         0.1312 
     82 H82        30.4497   -2.4821   -6.3080 H         1 UNK         0.1406 
     83 H83        29.1827   -6.0469   -4.3268 H         1 UNK         0.1631 
     84 H84        29.2812   -4.0547   -7.5595 H         1 UNK         0.0717 
     85 H85        29.6983   -5.6815   -7.1043 H         1 UNK         0.0717 
     86 H86        25.6825   -4.0780   -5.5231 H         1 UNK         0.0934 
     87 H87        27.2062   -3.4093   -5.0595 H         1 UNK         0.0934 
     88 H88        26.2807   -3.0120   -7.9486 H         1 UNK         0.0739 
     89 H89        24.7362   -2.0374   -5.7395 H         1 UNK         0.3093 
     90 H90        23.1438    0.6360   -7.4215 H         1 UNK         0.0818 
     91 H91        21.1186   -0.6702   -6.8396 H         1 UNK         0.0819 
     92 H92        21.9272   -1.3958   -8.2179 H         1 UNK         0.0819 
     93 H93        22.0821   -2.1328   -6.6294 H         1 UNK         0.0819 
     94 H94        22.7776   -0.5324   -4.8300 H         1 UNK         0.3041 
     95 H95        25.1860    1.5327   -3.1583 H         1 UNK         0.0784 
     96 H96        23.0861    2.8699   -3.4533 H         1 UNK         0.0793 
     97 H97        22.1236    1.4431   -3.0940 H         1 UNK         0.0793 
     98 H98        23.1800    2.1358   -1.8628 H         1 UNK         0.0793 
     99 H99        23.5814   -0.3071   -1.9124 H         1 UNK         0.3024 
    100 H100       24.5387   -2.0692   -0.9294 H         1 UNK         0.1171 
    101 H101       24.2640   -4.4165   -1.7076 H         1 UNK         0.0786 
    102 H102       23.3198   -3.3372   -2.7209 H         1 UNK         0.0786 
    103 H103       24.8438   -3.9857   -3.3128 H         1 UNK         0.0786 
    104 H104       26.8649   -3.5028   -2.0321 H         1 UNK         0.2977 
    105 H105       26.9637   -0.8841   -5.1648 H         1 UNK         0.3127 
    106 H106       29.6046   -0.1638   -5.7694 H         1 UNK         0.0770 
    107 H107       27.4590    1.4688   -4.3039 H         1 UNK         0.0814 
    108 H108       29.1990    1.6482   -4.1298 H         1 UNK         0.0814 
    109 H109       28.4156    0.1818   -3.5788 H         1 UNK         0.0814 
    110 H110       26.5404    1.4037   -6.8030 H         1 UNK         0.2983 
    111 H111       27.7512    3.5343   -8.2616 H         1 UNK         0.0947 
    112 H112       25.4808    3.7428   -9.3026 H         1 UNK         0.0806 
    113 H113       25.3810    3.5912   -7.5555 H         1 UNK         0.0806 
    114 H114       25.0032    2.2103   -8.5821 H         1 UNK         0.0806 
    115 H115       26.6455    0.2689   -9.3028 H         1 UNK         0.3000 
    116 H116       27.2229    0.6012  -12.0623 H         1 UNK         0.0850 
    117 H117       27.0017   -1.8958  -12.1339 H         1 UNK         0.0810 
    118 H118       25.6928   -1.1484  -11.2323 H         1 UNK         0.0810 
    119 H119       27.0066   -1.9497  -10.3755 H         1 UNK         0.0810 
    120 H120       29.1863   -0.8781   -9.4347 H         1 UNK         0.3040 
    121 H121       31.4483   -1.4120  -11.1985 H         1 UNK         0.0766 
    122 H122       30.8994   -2.9046   -9.3014 H         1 UNK         0.0812 
    123 H123       31.1155   -1.5690   -8.1738 H         1 UNK         0.0812 
    124 H124       32.4949   -2.2030   -9.0616 H         1 UNK         0.0812 
    125 H125       30.4063    1.3609   -9.4797 H         1 UNK         0.3205 
    126 H126       31.1204    3.4002   -9.2322 H         1 UNK         0.0754 
    127 H127       32.9613    4.3595  -10.5308 H         1 UNK         0.0769 
    128 H128       32.0621    3.2506  -11.5513 H         1 UNK         0.0769 
    129 H129       33.6213    2.7710  -10.8796 H         1 UNK         0.0769 
    130 H130       32.1693    1.0521   -7.4827 H         1 UNK         0.2981 
    131 H131       34.2573    2.4398   -5.9574 H         1 UNK         0.0541 
    132 H132       30.7085    3.5275   -4.5127 H         1 UNK         0.3459 
    133 H133       30.8345    2.7578   -6.0812 H         1 UNK         0.3459 
    134 H134       34.0005    0.4368   -4.3472 H         1 UNK         0.0612 
    135 H135       34.7301    0.1906   -5.8973 H         1 UNK         0.0612 
    136 H136       32.6325   -1.3864   -3.4597 H         1 UNK         0.0624 
    137 H137       31.1845   -0.5237   -3.9333 H         1 UNK         0.0624 
@<TRIPOS>BOND
     1    1    2 1    
     2    1   72 1    
     3    1   73 1    
     4    1   74 1    
     5    2    3 2    
     6    2    4 am   BACKBONE|DICT|INTERRES
     7    4    5 1    
     8    4   75 1    
     9    5    6 1    
    10    5   35 1    
    11    5   76 1    
    12    6    7 1    
    13    6   77 1    
    14    6   78 1    
    15    7    8 1    
    16    8    9 1    
    17    8   79 1    
    18    8   80 1    
    19    9   10 ar   
    20    9   14 ar   
    21   10   11 ar   
    22   10   81 1    
    23   11   12 ar   
    24   11   71 1    
    25   12   13 ar   
    26   12   82 1    
    27   13   14 ar   
    28   13   15 1    
    29   14   83 1    
    30   15   16 1    
    31   15   84 1    
    32   15   85 1    
    33   16   17 1    
    34   17   18 1    
    35   17   86 1    
    36   17   87 1    
    37   18   19 1    
    38   18   37 1    
    39   18   88 1    
    40   19   20 am   BACKBONE|DICT|INTERRES
    41   19   89 1    
    42   20   21 2    
    43   20   22 1    
    44   22   23 1    
    45   22   24 1    
    46   22   90 1    
    47   23   91 1    
    48   23   92 1    
    49   23   93 1    
    50   24   25 am   BACKBONE|DICT|INTERRES
    51   24   94 1    
    52   25   26 2    
    53   25   27 1    
    54   27   28 1    
    55   27   29 1    
    56   27   95 1    
    57   28   96 1    
    58   28   97 1    
    59   28   98 1    
    60   29   30 am   BACKBONE|DICT|INTERRES
    61   29   99 1    
    62   30   31 2    
    63   30   32 1    
    64   32   33 1    
    65   32   34 1    
    66   32  100 1    
    67   33  101 1    
    68   33  102 1    
    69   33  103 1    
    70   34   35 am   BACKBONE|DICT|INTERRES
    71   34  104 1    
    72   35   36 2    
    73   37   38 2    
    74   37   39 am   BACKBONE|DICT|INTERRES
    75   39   40 1    
    76   39  105 1    
    77   40   41 1    
    78   40   42 1    
    79   40  106 1    
    80   41  107 1    
    81   41  108 1    
    82   41  109 1    
    83   42   43 2    
    84   42   44 am   BACKBONE|DICT|INTERRES
    85   44   45 1    
    86   44  110 1    
    87   45   46 1    
    88   45   47 1    
    89   45  111 1    
    90   46  112 1    
    91   46  113 1    
    92   46  114 1    
    93   47   48 2    
    94   47   49 am   BACKBONE|DICT|INTERRES
    95   49   50 1    
    96   49  115 1    
    97   50   51 1    
    98   50   52 1    
    99   50  116 1    
   100   51  117 1    
   101   51  118 1    
   102   51  119 1    
   103   52   53 2    
   104   52   54 am   BACKBONE|DICT|INTERRES
   105   54   55 1    
   106   54  120 1    
   107   55   56 1    
   108   55   57 1    
   109   55  121 1    
   110   56  122 1    
   111   56  123 1    
   112   56  124 1    
   113   57   58 2    
   114   57   59 am   BACKBONE|DICT|INTERRES
   115   59   60 1    
   116   59  125 1    
   117   60   61 1    
   118   60   62 1    
   119   60  126 1    
   120   61  127 1    
   121   61  128 1    
   122   61  129 1    
   123   62   63 2    
   124   62   64 am   BACKBONE|DICT|INTERRES
   125   64   65 1    
   126   64  130 1    
   127   65   66 1    
   128   65   69 1    
   129   65  131 1    
   130   66   67 am   BACKBONE|DICT|INTERRES
   131   66   68 2    
   132   67  132 1    
   133   67  133 1    
   134   69   70 1    
   135   69  134 1    
   136   69  135 1    
   137   70   71 1    
   138   71  136 1    
   139   71  137 1    
@<TRIPOS>SUBSTRUCTURE
     1 UNK         1 GROUP             0       ****    0 ROOT    
