@<TRIPOS>MOLECULE
3R137
137   139    1
SMALL
USER_CHARGES


@<TRIPOS>ATOM
      1 CA         25.7682   -6.3680    1.9308 C.3       0 UNK        -0.2020 
      2 C          26.2328   -4.9307    1.7491 C.2       0 UNK         0.4855 
      3 O          25.7122   -4.0325    2.4106 O.2       0 UNK        -0.5197 
      4 N          27.2122   -4.7089    0.8617 N.am      1 UNK        -0.4892 
      5 CA         27.7652   -3.3897    0.5280 C.3       1 UNK         0.0835 
      6 C6         29.0875   -3.5373   -0.2658 C.3       12 UNK        -0.0855 
      7 S7         30.0931   -2.0148   -0.3420 S.3       12 UNK        -0.2931 
      8 C8         29.6012   -1.2803   -1.9374 C.3       12 UNK         0.0378 
      9 C9         30.1334   -2.0547   -3.1358 C.ar      12 UNK        -0.0802 
     10 C10        31.3999   -1.7661   -3.6512 C.ar      12 UNK        -0.0944 
     11 C11        31.9007   -2.4786   -4.7448 C.ar      12 UNK        -0.0787 
     12 C12        31.1286   -3.4968   -5.3158 C.ar      12 UNK        -0.0862 
     13 C13        29.8643   -3.8040   -4.8017 C.ar      12 UNK        -0.0733 
     14 C14        29.3620   -3.0574   -3.7315 C.ar      12 UNK        -0.0832 
     15 C15        29.0827   -4.9978   -5.3406 C.3       12 UNK         0.0240 
     16 S16        28.1387   -4.6315   -6.8528 S.3       12 UNK        -0.2522 
     17 C17        26.7632   -3.6184   -6.2071 C.3       12 UNK        -0.0967 
     18 CA         26.5064   -2.3409   -7.0408 C.3       5 UNK         0.0660 
     19 N          25.3007   -1.6357   -6.6052 N.am      5 UNK        -0.4015 
     20 C          24.6955   -0.6631   -7.3033 C.2       4 UNK         0.4946 
     21 O          25.0415   -0.3048   -8.4293 O.2       4 UNK        -0.5353 
     22 CA         23.5384    0.0675   -6.6017 C.3       4 UNK         0.0277 
     23 CB         22.2291   -0.7255   -6.7404 C.3       4 UNK        -0.1981 
     24 N          23.8166    0.3229   -5.1854 N.am      4 UNK        -0.4209 
     25 C          24.7930    1.1296   -4.7437 C.2       3 UNK         0.4942 
     26 O          25.5107    1.7989   -5.4851 O.2       3 UNK        -0.5208 
     27 CA         25.0397    1.1697   -3.2262 C.3       3 UNK         0.0250 
     28 CB         24.2209    2.2973   -2.5784 C.3       3 UNK        -0.1990 
     29 N          24.7541   -0.0980   -2.5458 N.am      3 UNK        -0.4232 
     30 C          25.4119   -1.2463   -2.7582 C.2       2 UNK         0.4993 
     31 O          26.3133   -1.3792   -3.5902 O.2       2 UNK        -0.5286 
     32 CA         24.9429   -2.4659   -1.9459 C.3       2 UNK         0.0209 
     33 CB         24.3046   -3.5122   -2.8749 C.3       2 UNK        -0.1931 
     34 N          26.0227   -3.0973   -1.1824 N.am      2 UNK        -0.4546 
     35 C          26.7275   -2.5078   -0.2037 C.2       1 UNK         0.5154 
     36 O          26.5554   -1.3422    0.1567 O.2       1 UNK        -0.5181 
     37 C          27.7138   -1.3861   -7.0601 C.2       5 UNK         0.5014 
     38 O          28.4335   -1.3620   -8.0577 O.2       5 UNK        -0.5248 
     39 N          27.8745   -0.5790   -5.9989 N.am      6 UNK        -0.4434 
     40 CA         28.9201    0.4430   -5.8910 C.3       6 UNK         0.0363 
     41 CB         28.8098    1.1750   -4.5448 C.3       6 UNK        -0.1936 
     42 C          28.8847    1.4579   -7.0447 C.2       6 UNK         0.5081 
     43 O          29.9339    1.7700   -7.6052 O.2       6 UNK        -0.5248 
     44 N          27.6798    1.9265   -7.3968 N.am      7 UNK        -0.4718 
     45 CA         27.4308    2.8106   -8.5345 C.3       7 UNK         0.0273 
     46 CB         25.9823    3.3219   -8.4838 C.3       7 UNK        -0.1935 
     47 C          27.7292    2.1387   -9.8844 C.2       7 UNK         0.5018 
     48 O          28.4091    2.7427  -10.7142 O.2       7 UNK        -0.5186 
     49 N          27.2373    0.9051  -10.0757 N.am      8 UNK        -0.4240 
     50 CA         27.4260    0.1168  -11.2981 C.3       8 UNK         0.0235 
     51 CB         26.5401   -1.1384  -11.2493 C.3       8 UNK        -0.2000 
     52 C          28.8925   -0.2660  -11.5590 C.2       8 UNK         0.4941 
     53 O          29.3538   -0.1517  -12.6952 O.2       8 UNK        -0.5273 
     54 N          29.5994   -0.7001  -10.5078 N.am      9 UNK        -0.4262 
     55 CA         31.0149   -1.0746  -10.5520 C.3       9 UNK         0.0264 
     56 CB         31.3042   -2.0452   -9.3956 C.3       9 UNK        -0.1955 
     57 C          31.9736    0.1313  -10.5095 C.2       9 UNK         0.5031 
     58 O          33.1653   -0.0540  -10.7615 O.2       9 UNK        -0.5390 
     59 N          31.4502    1.3270  -10.1958 N.am      10 UNK        -0.4204 
     60 CA         32.1591    2.6002  -10.0164 C.3       10 UNK         0.0237 
     61 CB         32.7851    3.0830  -11.3425 C.3       10 UNK        -0.1985 
     62 C          33.1610    2.5546   -8.8452 C.2       10 UNK         0.4970 
     63 O          34.2923    3.0275   -8.9740 O.2       10 UNK        -0.4914 
     64 N          32.7145    1.9836   -7.7213 N.am      11 UNK        -0.4285 
     65 CA         33.4740    1.8610   -6.4678 C.3       11 UNK         0.1007 
     66 C          33.4268    3.1386   -5.5816 C.2       11 UNK         0.5703 
     67 N          32.5782    4.1196   -5.8685 N.am      11 UNK        -0.7361 
     68 O          34.1846    3.2465   -4.6206 O.2       11 UNK        -0.4986 
     69 C69        33.0434    0.6088   -5.6591 C.3       12 UNK        -0.0947 
     70 S70        33.2829   -0.9366   -6.5969 S.3       12 UNK        -0.2240 
     71 C71        33.2973   -2.1844   -5.2744 C.3       12 UNK         0.0194 
     72 H72        26.3174   -7.0597    1.2922 H         1 UNK         0.0906 
     73 H73        25.9079   -6.6793    2.9657 H         1 UNK         0.0906 
     74 H74        24.7089   -6.4528    1.6897 H         1 UNK         0.0906 
     75 H75        27.6077   -5.4935    0.3623 H         1 UNK         0.3140 
     76 H76        27.9960   -2.8916    1.4729 H         1 UNK         0.1085 
     77 H77        29.7163   -4.2798    0.2287 H         1 UNK         0.0836 
     78 H78        28.9084   -3.9418   -1.2593 H         1 UNK         0.0836 
     79 H79        29.9829   -0.2588   -1.9671 H         1 UNK         0.0731 
     80 H80        28.5164   -1.1952   -1.9914 H         1 UNK         0.0731 
     81 H81        32.0008   -0.9920   -3.1941 H         1 UNK         0.1312 
     82 H82        31.5227   -4.0688   -6.1448 H         1 UNK         0.1406 
     83 H83        28.3792   -3.2763   -3.3389 H         1 UNK         0.1631 
     84 H84        28.4050   -5.3873   -4.5792 H         1 UNK         0.0717 
     85 H85        29.7786   -5.8090   -5.5598 H         1 UNK         0.0717 
     86 H86        25.8697   -4.2445   -6.2096 H         1 UNK         0.0934 
     87 H87        26.9431   -3.3644   -5.1639 H         1 UNK         0.0934 
     88 H88        26.3325   -2.6562   -8.0721 H         1 UNK         0.0739 
     89 H89        24.9871   -1.8215   -5.6645 H         1 UNK         0.3093 
     90 H90        23.4086    1.0321   -7.0976 H         1 UNK         0.0818 
     91 H91        21.3866   -0.1766   -6.3192 H         1 UNK         0.0819 
     92 H92        21.9979   -0.9129   -7.7901 H         1 UNK         0.0819 
     93 H93        22.2830   -1.6937   -6.2411 H         1 UNK         0.0819 
     94 H94        23.2557   -0.1706   -4.5066 H         1 UNK         0.3041 
     95 H95        26.0982    1.3895   -3.0746 H         1 UNK         0.0784 
     96 H96        24.4355    3.2563   -3.0527 H         1 UNK         0.0793 
     97 H97        23.1479    2.1227   -2.6676 H         1 UNK         0.0793 
     98 H98        24.4584    2.4026   -1.5196 H         1 UNK         0.0793 
     99 H99        24.0291   -0.0746   -1.8428 H         1 UNK         0.3024 
    100 H100       24.1862   -2.1409   -1.2283 H         1 UNK         0.1171 
    101 H101       23.8860   -4.3432   -2.3068 H         1 UNK         0.0786 
    102 H102       23.4893   -3.0782   -3.4554 H         1 UNK         0.0786 
    103 H103       25.0276   -3.9215   -3.5813 H         1 UNK         0.0786 
    104 H104       26.2213   -4.0631   -1.3962 H         1 UNK         0.2977 
    105 H105       27.2601   -0.6989   -5.1986 H         1 UNK         0.3127 
    106 H106       29.8737   -0.0869   -5.9270 H         1 UNK         0.0770 
    107 H107       28.0115    1.9173   -4.5467 H         1 UNK         0.0814 
    108 H108       29.7372    1.7003   -4.3145 H         1 UNK         0.0814 
    109 H109       28.6065    0.4863   -3.7297 H         1 UNK         0.0814 
    110 H110       26.8749    1.6686   -6.8307 H         1 UNK         0.2983 
    111 H111       28.0984    3.6698   -8.4389 H         1 UNK         0.0947 
    112 H112       25.7754    3.9955   -9.3164 H         1 UNK         0.0806 
    113 H113       25.7905    3.8740   -7.5635 H         1 UNK         0.0806 
    114 H114       25.2622    2.5044   -8.5361 H         1 UNK         0.0806 
    115 H115       26.6647    0.4869   -9.3477 H         1 UNK         0.3000 
    116 H116       27.0942    0.7310  -12.1380 H         1 UNK         0.0850 
    117 H117       26.6531   -1.7335  -12.1565 H         1 UNK         0.0810 
    118 H118       25.4856   -0.8756  -11.1630 H         1 UNK         0.0810 
    119 H119       26.7946   -1.7783  -10.4037 H         1 UNK         0.0810 
    120 H120       29.1292   -0.8155   -9.6081 H         1 UNK         0.3040 
    121 H121       31.2062   -1.6029  -11.4884 H         1 UNK         0.0766 
    122 H122       31.0926   -1.5869   -8.4291 H         1 UNK         0.0812 
    123 H123       32.3501   -2.3548   -9.3900 H         1 UNK         0.0812 
    124 H124       30.6971   -2.9472   -9.4724 H         1 UNK         0.0812 
    125 H125       30.4634    1.3527   -9.9729 H         1 UNK         0.3205 
    126 H126       31.3966    3.3274   -9.7325 H         1 UNK         0.0754 
    127 H127       33.1962    4.0876  -11.2364 H         1 UNK         0.0769 
    128 H128       32.0422    3.1199  -12.1395 H         1 UNK         0.0769 
    129 H129       33.5972    2.4334  -11.6700 H         1 UNK         0.0769 
    130 H130       31.7398    1.6910   -7.6855 H         1 UNK         0.2981 
    131 H131       34.5254    1.7264   -6.7289 H         1 UNK         0.0541 
    132 H132       32.5627    4.9446   -5.2901 H         1 UNK         0.3459 
    133 H133       31.9463    4.0348   -6.6482 H         1 UNK         0.3459 
    134 H134       31.9968    0.6836   -5.3634 H         1 UNK         0.0612 
    135 H135       33.6213    0.5372   -4.7360 H         1 UNK         0.0612 
    136 H136       33.9536   -1.8586   -4.4661 H         1 UNK         0.0624 
    137 H137       33.7392   -3.1002   -5.6696 H         1 UNK         0.0624 
@<TRIPOS>BOND
     1    1    2 1    
     2    1   72 1    
     3    1   73 1    
     4    1   74 1    
     5    2    3 2    
     6    2    4 am   BACKBONE|DICT|INTERRES
     7    4    5 1    
     8    4   75 1    
     9    5    6 1    
    10    5   35 1    
    11    5   76 1    
    12    6    7 1    
    13    6   77 1    
    14    6   78 1    
    15    7    8 1    
    16    8    9 1    
    17    8   79 1    
    18    8   80 1    
    19    9   10 ar   
    20    9   14 ar   
    21   10   11 ar   
    22   10   81 1    
    23   11   12 ar   
    24   11   71 1    
    25   12   13 ar   
    26   12   82 1    
    27   13   14 ar   
    28   13   15 1    
    29   14   83 1    
    30   15   16 1    
    31   15   84 1    
    32   15   85 1    
    33   16   17 1    
    34   17   18 1    
    35   17   86 1    
    36   17   87 1    
    37   18   19 1    
    38   18   37 1    
    39   18   88 1    
    40   19   20 am   BACKBONE|DICT|INTERRES
    41   19   89 1    
    42   20   21 2    
    43   20   22 1    
    44   22   23 1    
    45   22   24 1    
    46   22   90 1    
    47   23   91 1    
    48   23   92 1    
    49   23   93 1    
    50   24   25 am   BACKBONE|DICT|INTERRES
    51   24   94 1    
    52   25   26 2    
    53   25   27 1    
    54   27   28 1    
    55   27   29 1    
    56   27   95 1    
    57   28   96 1    
    58   28   97 1    
    59   28   98 1    
    60   29   30 am   BACKBONE|DICT|INTERRES
    61   29   99 1    
    62   30   31 2    
    63   30   32 1    
    64   32   33 1    
    65   32   34 1    
    66   32  100 1    
    67   33  101 1    
    68   33  102 1    
    69   33  103 1    
    70   34   35 am   BACKBONE|DICT|INTERRES
    71   34  104 1    
    72   35   36 2    
    73   37   38 2    
    74   37   39 am   BACKBONE|DICT|INTERRES
    75   39   40 1    
    76   39  105 1    
    77   40   41 1    
    78   40   42 1    
    79   40  106 1    
    80   41  107 1    
    81   41  108 1    
    82   41  109 1    
    83   42   43 2    
    84   42   44 am   BACKBONE|DICT|INTERRES
    85   44   45 1    
    86   44  110 1    
    87   45   46 1    
    88   45   47 1    
    89   45  111 1    
    90   46  112 1    
    91   46  113 1    
    92   46  114 1    
    93   47   48 2    
    94   47   49 am   BACKBONE|DICT|INTERRES
    95   49   50 1    
    96   49  115 1    
    97   50   51 1    
    98   50   52 1    
    99   50  116 1    
   100   51  117 1    
   101   51  118 1    
   102   51  119 1    
   103   52   53 2    
   104   52   54 am   BACKBONE|DICT|INTERRES
   105   54   55 1    
   106   54  120 1    
   107   55   56 1    
   108   55   57 1    
   109   55  121 1    
   110   56  122 1    
   111   56  123 1    
   112   56  124 1    
   113   57   58 2    
   114   57   59 am   BACKBONE|DICT|INTERRES
   115   59   60 1    
   116   59  125 1    
   117   60   61 1    
   118   60   62 1    
   119   60  126 1    
   120   61  127 1    
   121   61  128 1    
   122   61  129 1    
   123   62   63 2    
   124   62   64 am   BACKBONE|DICT|INTERRES
   125   64   65 1    
   126   64  130 1    
   127   65   66 1    
   128   65   69 1    
   129   65  131 1    
   130   66   67 am   BACKBONE|DICT|INTERRES
   131   66   68 2    
   132   67  132 1    
   133   67  133 1    
   134   69   70 1    
   135   69  134 1    
   136   69  135 1    
   137   70   71 1    
   138   71  136 1    
   139   71  137 1    
@<TRIPOS>SUBSTRUCTURE
     1 UNK         1 GROUP             0       ****    0 ROOT    
