@<TRIPOS>MOLECULE
3R137
137   139    1
SMALL
USER_CHARGES


@<TRIPOS>ATOM
      1 CA         27.5126   -7.0347    0.2268 C.3       0 UNK        -0.2020 
      2 C          27.5613   -5.6308   -0.3557 C.2       0 UNK         0.4855 
      3 O          27.3584   -5.4657   -1.5582 O.2       0 UNK        -0.5197 
      4 N          27.8257   -4.6248    0.4901 N.am      1 UNK        -0.4892 
      5 CA         27.9449   -3.1851    0.1970 C.3       1 UNK         0.0835 
      6 C6         29.0552   -2.8254   -0.8255 C.3       12 UNK        -0.0855 
      7 S7         30.7273   -3.3148   -0.2681 S.3       12 UNK        -0.2931 
      8 C8         31.1239   -4.7422   -1.3338 C.3       12 UNK         0.0378 
      9 C9         31.1939   -4.3597   -2.8052 C.ar      12 UNK        -0.0802 
     10 C10        32.3040   -3.6734   -3.3092 C.ar      12 UNK        -0.0944 
     11 C11        32.3435   -3.2837   -4.6520 C.ar      12 UNK        -0.0787 
     12 C12        31.2689   -3.5905   -5.4903 C.ar      12 UNK        -0.0862 
     13 C13        30.1483   -4.2597   -4.9928 C.ar      12 UNK        -0.0733 
     14 C14        30.1301   -4.6682   -3.6579 C.ar      12 UNK        -0.0832 
     15 C15        28.9310   -4.4863   -5.8778 C.3       12 UNK         0.0240 
     16 S16        27.5025   -3.5003   -5.3150 S.3       12 UNK        -0.2522 
     17 C17        28.1285   -1.7888   -5.4592 C.3       12 UNK        -0.0967 
     18 CA         27.3629   -0.9796   -6.5276 C.3       5 UNK         0.0660 
     19 N          25.9356   -0.8493   -6.2196 N.am      5 UNK        -0.4015 
     20 C          25.0150   -0.3762   -7.0734 C.2       4 UNK         0.4946 
     21 O          25.2842    0.0171   -8.2095 O.2       4 UNK        -0.5353 
     22 CA         23.5621   -0.2794   -6.5763 C.3       4 UNK         0.0277 
     23 CB         22.7805   -1.5411   -6.9741 C.3       4 UNK        -0.1981 
     24 N          23.4428   -0.0677   -5.1311 N.am      4 UNK        -0.4209 
     25 C          23.9252    0.9922   -4.4652 C.2       3 UNK         0.4942 
     26 O          24.4992    1.9362   -5.0074 O.2       3 UNK        -0.5208 
     27 CA         23.7884    0.9759   -2.9323 C.3       3 UNK         0.0250 
     28 CB         22.5102    1.7121   -2.5001 C.3       3 UNK        -0.1990 
     29 N          23.8034   -0.3680   -2.3388 N.am      3 UNK        -0.4232 
     30 C          24.8179   -1.2389   -2.4393 C.2       2 UNK         0.4993 
     31 O          25.8329   -1.0327   -3.1081 O.2       2 UNK        -0.5286 
     32 CA         24.6388   -2.5869   -1.7221 C.3       2 UNK         0.0209 
     33 CB         24.0678   -3.6327   -2.6938 C.3       2 UNK        -0.1931 
     34 N          25.9002   -3.0894   -1.1761 N.am      2 UNK        -0.4546 
     35 C          26.6022   -2.5246   -0.1864 C.2       1 UNK         0.5154 
     36 O          26.2193   -1.5324    0.4364 O.2       1 UNK        -0.5181 
     37 C          28.0452    0.3792   -6.7801 C.2       5 UNK         0.5014 
     38 O          29.0098    0.4232   -7.5448 O.2       5 UNK        -0.5248 
     39 N          27.5160    1.4696   -6.2036 N.am      6 UNK        -0.4434 
     40 CA         27.9779    2.8376   -6.4582 C.3       6 UNK         0.0363 
     41 CB         27.3230    3.7976   -5.4531 C.3       6 UNK        -0.1936 
     42 C          27.7234    3.3114   -7.9026 C.2       6 UNK         0.5081 
     43 O          28.4182    4.2178   -8.3606 O.2       6 UNK        -0.5248 
     44 N          26.7559    2.6924   -8.5929 N.am      7 UNK        -0.4718 
     45 CA         26.4782    2.9142  -10.0103 C.3       7 UNK         0.0273 
     46 CB         24.9573    2.9881  -10.2268 C.3       7 UNK        -0.1935 
     47 C          27.0947    1.8023  -10.8717 C.2       7 UNK         0.5018 
     48 O          27.7113    2.1073  -11.8928 O.2       7 UNK        -0.5186 
     49 N          26.9012    0.5387  -10.4639 N.am      8 UNK        -0.4240 
     50 CA         27.2923   -0.6464  -11.2314 C.3       8 UNK         0.0235 
     51 CB         26.5733   -1.8846  -10.6713 C.3       8 UNK        -0.2000 
     52 C          28.8098   -0.8838  -11.2955 C.2       8 UNK         0.4941 
     53 O          29.3031   -1.2766  -12.3538 O.2       8 UNK        -0.5273 
     54 N          29.5147   -0.6607  -10.1786 N.am      9 UNK        -0.4262 
     55 CA         30.9658   -0.8333  -10.0671 C.3       9 UNK         0.0264 
     56 CB         31.2900   -1.7440   -8.8702 C.3       9 UNK        -0.1955 
     57 C          31.6746    0.5186   -9.9212 C.2       9 UNK         0.5031 
     58 O          32.7117    0.7201  -10.5539 O.2       9 UNK        -0.5390 
     59 N          31.1077    1.4092   -9.0913 N.am      10 UNK        -0.4204 
     60 CA         31.6104    2.7461   -8.7465 C.3       10 UNK         0.0237 
     61 CB         31.5625    3.6862   -9.9699 C.3       10 UNK        -0.1985 
     62 C          32.9897    2.7137   -8.0558 C.2       10 UNK         0.4970 
     63 O          33.8142    3.6028   -8.2747 O.2       10 UNK        -0.4914 
     64 N          33.2088    1.6835   -7.2292 N.am      11 UNK        -0.4285 
     65 CA         34.4387    1.4488   -6.4577 C.3       11 UNK         0.1007 
     66 C          34.6477    2.3902   -5.2341 C.2       11 UNK         0.5703 
     67 N          33.6678    3.1912   -4.8316 N.am      11 UNK        -0.7361 
     68 O          35.7283    2.4041   -4.6489 O.2       11 UNK        -0.4986 
     69 C69        34.5843   -0.0505   -6.0802 C.3       12 UNK        -0.0947 
     70 S70        33.1530   -0.7114   -5.1612 S.3       12 UNK        -0.2240 
     71 C71        33.5197   -2.4911   -5.1969 C.3       12 UNK         0.0194 
     72 H72        28.2528   -7.6677   -0.2620 H         1 UNK         0.0906 
     73 H73        27.7150   -7.0416    1.2977 H         1 UNK         0.0906 
     74 H74        26.5285   -7.4736    0.0642 H         1 UNK         0.0906 
     75 H75        27.9576   -4.8525    1.4663 H         1 UNK         0.3140 
     76 H76        28.2319   -2.7279    1.1459 H         1 UNK         0.1085 
     77 H77        28.8307   -3.2519   -1.8018 H         1 UNK         0.0836 
     78 H78        29.0816   -1.7454   -0.9837 H         1 UNK         0.0836 
     79 H79        32.0842   -5.1564   -1.0234 H         1 UNK         0.0731 
     80 H80        30.3889   -5.5316   -1.1735 H         1 UNK         0.0731 
     81 H81        33.1227   -3.4198   -2.6496 H         1 UNK         0.1312 
     82 H82        31.2901   -3.2703   -6.5214 H         1 UNK         0.1406 
     83 H83        29.2588   -5.1804   -3.2728 H         1 UNK         0.1631 
     84 H84        29.1491   -4.2383   -6.9179 H         1 UNK         0.0717 
     85 H85        28.6630   -5.5435   -5.8602 H         1 UNK         0.0717 
     86 H86        28.0555   -1.3106   -4.4810 H         1 UNK         0.0934 
     87 H87        29.1922   -1.8072   -5.6980 H         1 UNK         0.0934 
     88 H88        27.4360   -1.5323   -7.4653 H         1 UNK         0.0739 
     89 H89        25.6612   -1.1141   -5.2802 H         1 UNK         0.3093 
     90 H90        23.1070    0.5793   -7.0744 H         1 UNK         0.0818 
     91 H91        21.7249   -1.4531   -6.7165 H         1 UNK         0.0819 
     92 H92        22.8357   -1.7101   -8.0507 H         1 UNK         0.0819 
     93 H93        23.1744   -2.4327   -6.4841 H         1 UNK         0.0819 
     94 H94        22.9841   -0.7930   -4.5998 H         1 UNK         0.3041 
     95 H95        24.6467    1.5178   -2.5293 H         1 UNK         0.0784 
     96 H96        22.4854    2.7234   -2.9092 H         1 UNK         0.0793 
     97 H97        21.6112    1.1994   -2.8446 H         1 UNK         0.0793 
     98 H98        22.4514    1.8036   -1.4153 H         1 UNK         0.0793 
     99 H99        22.9970   -0.6216   -1.7855 H         1 UNK         0.3024 
    100 H100       23.9433   -2.4564   -0.8900 H         1 UNK         0.1171 
    101 H101       23.1075   -3.3120   -3.0997 H         1 UNK         0.0786 
    102 H102       24.7389   -3.8052   -3.5369 H         1 UNK         0.0786 
    103 H103       23.9052   -4.5891   -2.1963 H         1 UNK         0.0786 
    104 H104       26.3054   -3.9134   -1.6142 H         1 UNK         0.2977 
    105 H105       26.6939    1.3699   -5.6208 H         1 UNK         0.3127 
    106 H106       29.0569    2.8588   -6.2925 H         1 UNK         0.0770 
    107 H107       26.2437    3.8569   -5.5962 H         1 UNK         0.0814 
    108 H108       27.7197    4.8075   -5.5663 H         1 UNK         0.0814 
    109 H109       27.5106    3.4893   -4.4246 H         1 UNK         0.0814 
    110 H110       26.2413    1.9437   -8.1450 H         1 UNK         0.2983 
    111 H111       26.9086    3.8639  -10.3364 H         1 UNK         0.0947 
    112 H112       24.7209    3.1499  -11.2794 H         1 UNK         0.0806 
    113 H113       24.5195    3.8142   -9.6663 H         1 UNK         0.0806 
    114 H114       24.4546    2.0712   -9.9163 H         1 UNK         0.0806 
    115 H115       26.3421    0.3734   -9.6282 H         1 UNK         0.3000 
    116 H116       26.9456   -0.4995  -12.2569 H         1 UNK         0.0850 
    117 H117       26.8030   -2.7705  -11.2649 H         1 UNK         0.0810 
    118 H118       25.4908   -1.7558  -10.6873 H         1 UNK         0.0810 
    119 H119       26.8680   -2.0966   -9.6442 H         1 UNK         0.0810 
    120 H120       29.0385   -0.3102   -9.3542 H         1 UNK         0.3040 
    121 H121       31.3634   -1.3143  -10.9634 H         1 UNK         0.0766 
    122 H122       30.8272   -2.7241   -8.9860 H         1 UNK         0.0812 
    123 H123       30.9459   -1.3205   -7.9267 H         1 UNK         0.0812 
    124 H124       32.3659   -1.9015   -8.7808 H         1 UNK         0.0812 
    125 H125       30.2836    1.1075   -8.5712 H         1 UNK         0.3205 
    126 H126       30.9200    3.1453   -8.0035 H         1 UNK         0.0754 
    127 H127       31.8001    4.7117   -9.6846 H         1 UNK         0.0769 
    128 H128       30.5678    3.6992  -10.4165 H         1 UNK         0.0769 
    129 H129       32.2740    3.3884  -10.7404 H         1 UNK         0.0769 
    130 H130       32.4750    1.0054   -7.0886 H         1 UNK         0.2981 
    131 H131       35.2706    1.6777   -7.1264 H         1 UNK         0.0541 
    132 H132       32.7780    3.1863   -5.3016 H         1 UNK         0.3459 
    133 H133       33.8207    3.7991   -4.0426 H         1 UNK         0.3459 
    134 H134       35.4915   -0.2241   -5.4985 H         1 UNK         0.0612 
    135 H135       34.7003   -0.6371   -6.9930 H         1 UNK         0.0612 
    136 H136       34.4210   -2.6887   -4.6147 H         1 UNK         0.0624 
    137 H137       33.7324   -2.8018   -6.2210 H         1 UNK         0.0624 
@<TRIPOS>BOND
     1    1    2 1    
     2    1   72 1    
     3    1   73 1    
     4    1   74 1    
     5    2    3 2    
     6    2    4 am   BACKBONE|DICT|INTERRES
     7    4    5 1    
     8    4   75 1    
     9    5    6 1    
    10    5   35 1    
    11    5   76 1    
    12    6    7 1    
    13    6   77 1    
    14    6   78 1    
    15    7    8 1    
    16    8    9 1    
    17    8   79 1    
    18    8   80 1    
    19    9   10 ar   
    20    9   14 ar   
    21   10   11 ar   
    22   10   81 1    
    23   11   12 ar   
    24   11   71 1    
    25   12   13 ar   
    26   12   82 1    
    27   13   14 ar   
    28   13   15 1    
    29   14   83 1    
    30   15   16 1    
    31   15   84 1    
    32   15   85 1    
    33   16   17 1    
    34   17   18 1    
    35   17   86 1    
    36   17   87 1    
    37   18   19 1    
    38   18   37 1    
    39   18   88 1    
    40   19   20 am   BACKBONE|DICT|INTERRES
    41   19   89 1    
    42   20   21 2    
    43   20   22 1    
    44   22   23 1    
    45   22   24 1    
    46   22   90 1    
    47   23   91 1    
    48   23   92 1    
    49   23   93 1    
    50   24   25 am   BACKBONE|DICT|INTERRES
    51   24   94 1    
    52   25   26 2    
    53   25   27 1    
    54   27   28 1    
    55   27   29 1    
    56   27   95 1    
    57   28   96 1    
    58   28   97 1    
    59   28   98 1    
    60   29   30 am   BACKBONE|DICT|INTERRES
    61   29   99 1    
    62   30   31 2    
    63   30   32 1    
    64   32   33 1    
    65   32   34 1    
    66   32  100 1    
    67   33  101 1    
    68   33  102 1    
    69   33  103 1    
    70   34   35 am   BACKBONE|DICT|INTERRES
    71   34  104 1    
    72   35   36 2    
    73   37   38 2    
    74   37   39 am   BACKBONE|DICT|INTERRES
    75   39   40 1    
    76   39  105 1    
    77   40   41 1    
    78   40   42 1    
    79   40  106 1    
    80   41  107 1    
    81   41  108 1    
    82   41  109 1    
    83   42   43 2    
    84   42   44 am   BACKBONE|DICT|INTERRES
    85   44   45 1    
    86   44  110 1    
    87   45   46 1    
    88   45   47 1    
    89   45  111 1    
    90   46  112 1    
    91   46  113 1    
    92   46  114 1    
    93   47   48 2    
    94   47   49 am   BACKBONE|DICT|INTERRES
    95   49   50 1    
    96   49  115 1    
    97   50   51 1    
    98   50   52 1    
    99   50  116 1    
   100   51  117 1    
   101   51  118 1    
   102   51  119 1    
   103   52   53 2    
   104   52   54 am   BACKBONE|DICT|INTERRES
   105   54   55 1    
   106   54  120 1    
   107   55   56 1    
   108   55   57 1    
   109   55  121 1    
   110   56  122 1    
   111   56  123 1    
   112   56  124 1    
   113   57   58 2    
   114   57   59 am   BACKBONE|DICT|INTERRES
   115   59   60 1    
   116   59  125 1    
   117   60   61 1    
   118   60   62 1    
   119   60  126 1    
   120   61  127 1    
   121   61  128 1    
   122   61  129 1    
   123   62   63 2    
   124   62   64 am   BACKBONE|DICT|INTERRES
   125   64   65 1    
   126   64  130 1    
   127   65   66 1    
   128   65   69 1    
   129   65  131 1    
   130   66   67 am   BACKBONE|DICT|INTERRES
   131   66   68 2    
   132   67  132 1    
   133   67  133 1    
   134   69   70 1    
   135   69  134 1    
   136   69  135 1    
   137   70   71 1    
   138   71  136 1    
   139   71  137 1    
@<TRIPOS>SUBSTRUCTURE
     1 UNK         1 GROUP             0       ****    0 ROOT    
