@<TRIPOS>MOLECULE
3R137
137   139    1
SMALL
USER_CHARGES


@<TRIPOS>ATOM
      1 CA         23.2588   -0.9854   -0.4074 C.3       0 UNK        -0.2020 
      2 C          24.7677   -0.8052   -0.4654 C.2       0 UNK         0.4855 
      3 O          25.2447    0.3077   -0.6889 O.2       0 UNK        -0.5197 
      4 N          25.5306   -1.8897   -0.2745 N.am      1 UNK        -0.4892 
      5 CA         26.9900   -1.9036   -0.4186 C.3       1 UNK         0.0835 
      6 C6         27.6034   -3.2013    0.1634 C.3       12 UNK        -0.0855 
      7 S7         29.3639   -3.0057    0.6116 S.3       12 UNK        -0.2931 
      8 C8         30.1572   -4.3885   -0.2742 C.3       12 UNK         0.0378 
      9 C9         30.1557   -4.1661   -1.7784 C.ar      12 UNK        -0.0802 
     10 C10        31.0852   -3.3006   -2.3608 C.ar      12 UNK        -0.0944 
     11 C11        31.0471   -3.0422   -3.7331 C.ar      12 UNK        -0.0787 
     12 C12        30.0769   -3.6657   -4.5246 C.ar      12 UNK        -0.0862 
     13 C13        29.1471   -4.5482   -3.9567 C.ar      12 UNK        -0.0733 
     14 C14        29.2051   -4.7995   -2.5834 C.ar      12 UNK        -0.0832 
     15 C15        28.0107   -5.1783   -4.7614 C.3       12 UNK         0.0240 
     16 S16        28.3355   -5.3375   -6.5472 S.3       12 UNK        -0.2522 
     17 C17        26.6536   -5.6080   -7.2178 C.3       12 UNK        -0.0967 
     18 CA         25.8779   -4.3221   -7.6254 C.3       5 UNK         0.0660 
     19 N          25.3250   -3.6206   -6.4577 N.am      5 UNK        -0.4015 
     20 C          24.5165   -2.5511   -6.4858 C.2       4 UNK         0.4946 
     21 O          24.2645   -1.9128   -7.5081 O.2       4 UNK        -0.5353 
     22 CA         23.8640   -2.1277   -5.1562 C.3       4 UNK         0.0277 
     23 CB         23.7896   -3.2533   -4.1035 C.3       4 UNK        -0.1981 
     24 N          24.5721   -0.9801   -4.5960 N.am      4 UNK        -0.4209 
     25 C          24.3614    0.2952   -4.9574 C.2       3 UNK         0.4942 
     26 O          23.4643    0.6505   -5.7224 O.2       3 UNK        -0.5208 
     27 CA         25.2940    1.3742   -4.3760 C.3       3 UNK         0.0250 
     28 CB         24.5352    2.2841   -3.3966 C.3       3 UNK        -0.1990 
     29 N          26.4918    0.8398   -3.7226 N.am      3 UNK        -0.4232 
     30 C          27.5125    0.2535   -4.3660 C.2       2 UNK         0.4993 
     31 O          27.5612    0.1190   -5.5888 O.2       2 UNK        -0.5286 
     32 CA         28.6604   -0.3055   -3.5108 C.3       2 UNK         0.0209 
     33 CB         29.8072    0.7138   -3.4222 C.3       2 UNK        -0.1931 
     34 N          28.2614   -0.7181   -2.1607 N.am      2 UNK        -0.4546 
     35 C          27.3606   -1.6756   -1.8992 C.2       1 UNK         0.5154 
     36 O          26.7812   -2.3222   -2.7763 O.2       1 UNK        -0.5181 
     37 C          26.6811   -3.4359   -8.6052 C.2       5 UNK         0.5014 
     38 O          26.6276   -3.6770   -9.8127 O.2       5 UNK        -0.5248 
     39 N          27.4097   -2.4454   -8.0732 N.am      6 UNK        -0.4434 
     40 CA         28.2831   -1.5573   -8.8400 C.3       6 UNK         0.0363 
     41 CB         29.6089   -1.3895   -8.0791 C.3       6 UNK        -0.1936 
     42 C          27.6465   -0.1886   -9.1250 C.2       6 UNK         0.5081 
     43 O          28.2965    0.6342   -9.7687 O.2       6 UNK        -0.5248 
     44 N          26.4265    0.0657   -8.6228 N.am      7 UNK        -0.4718 
     45 CA         25.6759    1.3276   -8.7346 C.3       7 UNK         0.0273 
     46 CB         25.1309    1.4912  -10.1687 C.3       7 UNK        -0.1935 
     47 C          26.4637    2.5703   -8.2572 C.2       7 UNK         0.5018 
     48 O          26.2856    3.6595   -8.8046 O.2       7 UNK        -0.5186 
     49 N          27.3417    2.3669   -7.2633 N.am      8 UNK        -0.4240 
     50 CA         28.2929    3.3145   -6.6741 C.3       8 UNK         0.0235 
     51 CB         27.5627    4.4971   -6.0029 C.3       8 UNK        -0.2000 
     52 C          29.4175    3.7776   -7.6238 C.2       8 UNK         0.4941 
     53 O          30.1367    4.7169   -7.2767 O.2       8 UNK        -0.5273 
     54 N          29.6119    3.1110   -8.7731 N.am      9 UNK        -0.4262 
     55 CA         30.6399    3.4406   -9.7686 C.3       9 UNK         0.0264 
     56 CB         30.1950    2.9241  -11.1495 C.3       9 UNK        -0.1955 
     57 C          32.0347    2.9207   -9.3647 C.2       9 UNK         0.5031 
     58 O          32.6407    2.1384  -10.1003 O.2       9 UNK        -0.5390 
     59 N          32.5067    3.3457   -8.1829 N.am      10 UNK        -0.4204 
     60 CA         33.8242    3.0756   -7.5831 C.3       10 UNK         0.0237 
     61 CB         34.9149    3.8633   -8.3397 C.3       10 UNK        -0.1985 
     62 C          34.1784    1.5778   -7.4425 C.2       10 UNK         0.4970 
     63 O          35.3594    1.2260   -7.4566 O.2       10 UNK        -0.4914 
     64 N          33.1522    0.7256   -7.3181 N.am      11 UNK        -0.4285 
     65 CA         33.2457   -0.7428   -7.3277 C.3       11 UNK         0.1007 
     66 C          33.6752   -1.3592   -8.6966 C.2       11 UNK         0.5703 
     67 N          33.5897   -0.6330   -9.8061 N.am      11 UNK        -0.7361 
     68 O          34.0647   -2.5222   -8.7671 O.2       11 UNK        -0.4986 
     69 C69        34.0273   -1.3035   -6.1004 C.3       12 UNK        -0.0947 
     70 S70        33.2509   -2.8019   -5.4075 S.3       12 UNK        -0.2240 
     71 C71        31.9959   -2.0254   -4.3481 C.3       12 UNK         0.0194 
     72 H72        22.8135   -0.7083   -1.3628 H         1 UNK         0.0906 
     73 H73        22.9785   -2.0155   -0.1883 H         1 UNK         0.0906 
     74 H74        22.8340   -0.3456    0.3656 H         1 UNK         0.0906 
     75 H75        25.0924   -2.7875   -0.1255 H         1 UNK         0.3140 
     76 H76        27.3676   -1.0608    0.1656 H         1 UNK         0.1085 
     77 H77        27.4560   -4.0460   -0.5101 H         1 UNK         0.0836 
     78 H78        27.0846   -3.4716    1.0847 H         1 UNK         0.0836 
     79 H79        29.6568   -5.3234   -0.0166 H         1 UNK         0.0731 
     80 H80        31.1857   -4.4881    0.0760 H         1 UNK         0.0731 
     81 H81        31.8140   -2.8014   -1.7368 H         1 UNK         0.1312 
     82 H82        30.0367   -3.4312   -5.5785 H         1 UNK         0.1406 
     83 H83        28.4793   -5.4626   -2.1327 H         1 UNK         0.1631 
     84 H84        27.1250   -4.5640   -4.6056 H         1 UNK         0.0717 
     85 H85        27.7781   -6.1694   -4.3686 H         1 UNK         0.0717 
     86 H86        26.7629   -6.2483   -8.0953 H         1 UNK         0.0934 
     87 H87        26.0706   -6.1993   -6.5097 H         1 UNK         0.0934 
     88 H88        25.0029   -4.6546   -8.1883 H         1 UNK         0.0739 
     89 H89        25.4803   -4.0614   -5.5644 H         1 UNK         0.3093 
     90 H90        22.8371   -1.8359   -5.3876 H         1 UNK         0.0818 
     91 H91        23.2567   -4.1212   -4.4947 H         1 UNK         0.0819 
     92 H92        24.7716   -3.5890   -3.7721 H         1 UNK         0.0819 
     93 H93        23.2464   -2.9206   -3.2188 H         1 UNK         0.0819 
     94 H94        25.3466   -1.1897   -3.9765 H         1 UNK         0.3041 
     95 H95        25.6182    1.9929   -5.2124 H         1 UNK         0.0784 
     96 H96        23.7081    2.7888   -3.8976 H         1 UNK         0.0793 
     97 H97        24.1113    1.7211   -2.5654 H         1 UNK         0.0793 
     98 H98        25.1835    3.0582   -2.9857 H         1 UNK         0.0793 
     99 H99        26.5088    0.8742   -2.7112 H         1 UNK         0.3024 
    100 H100       29.0202   -1.1926   -4.0302 H         1 UNK         0.1171 
    101 H101       30.6592    0.3069   -2.8776 H         1 UNK         0.0786 
    102 H102       30.1617    0.9905   -4.4162 H         1 UNK         0.0786 
    103 H103       29.4950    1.6303   -2.9199 H         1 UNK         0.0786 
    104 H104       28.6929   -0.2286   -1.3897 H         1 UNK         0.2977 
    105 H105       27.3807   -2.3011   -7.0735 H         1 UNK         0.3127 
    106 H106       28.5141   -2.0036   -9.8095 H         1 UNK         0.0770 
    107 H107       29.4651   -0.9242   -7.1040 H         1 UNK         0.0814 
    108 H108       30.3000   -0.7621   -8.6436 H         1 UNK         0.0814 
    109 H109       30.0988   -2.3511   -7.9250 H         1 UNK         0.0814 
    110 H110       25.9530   -0.6772   -8.1203 H         1 UNK         0.2983 
    111 H111       24.8208    1.2353   -8.0635 H         1 UNK         0.0947 
    112 H112       24.4660    2.3527  -10.2411 H         1 UNK         0.0806 
    113 H113       24.5584    0.6163  -10.4765 H         1 UNK         0.0806 
    114 H114       25.9352    1.6380  -10.8905 H         1 UNK         0.0806 
    115 H115       27.3951    1.4250   -6.8764 H         1 UNK         0.3000 
    116 H116       28.7983    2.7601   -5.8825 H         1 UNK         0.0850 
    117 H117       28.2589    5.1183   -5.4381 H         1 UNK         0.0810 
    118 H118       26.8033    4.1512   -5.3022 H         1 UNK         0.0810 
    119 H119       27.0767    5.1425   -6.7349 H         1 UNK         0.0810 
    120 H120       29.0162    2.3172   -8.9956 H         1 UNK         0.3040 
    121 H121       30.7152    4.5278   -9.8414 H         1 UNK         0.0766 
    122 H122       29.2071    3.2999  -11.4163 H         1 UNK         0.0812 
    123 H123       30.1589    1.8348  -11.1817 H         1 UNK         0.0812 
    124 H124       30.8874    3.2475  -11.9277 H         1 UNK         0.0812 
    125 H125       31.8922    3.9618   -7.6543 H         1 UNK         0.3205 
    126 H126       33.7799    3.4670   -6.5658 H         1 UNK         0.0754 
    127 H127       35.8790    3.7896   -7.8348 H         1 UNK         0.0769 
    128 H128       34.6672    4.9229   -8.4032 H         1 UNK         0.0769 
    129 H129       35.0486    3.4890   -9.3555 H         1 UNK         0.0769 
    130 H130       32.2188    1.1068   -7.3344 H         1 UNK         0.2981 
    131 H131       32.2094   -1.0550   -7.2200 H         1 UNK         0.0541 
    132 H132       33.2679    0.3308   -9.7883 H         1 UNK         0.3459 
    133 H133       33.8614   -1.0485  -10.6823 H         1 UNK         0.3459 
    134 H134       35.0645   -1.5238   -6.3587 H         1 UNK         0.0612 
    135 H135       34.0806   -0.5613   -5.3021 H         1 UNK         0.0612 
    136 H136       31.4178   -1.3145   -4.9392 H         1 UNK         0.0624 
    137 H137       32.4963   -1.4455   -3.5710 H         1 UNK         0.0624 
@<TRIPOS>BOND
     1    1    2 1    
     2    1   72 1    
     3    1   73 1    
     4    1   74 1    
     5    2    3 2    
     6    2    4 am   BACKBONE|DICT|INTERRES
     7    4    5 1    
     8    4   75 1    
     9    5    6 1    
    10    5   35 1    
    11    5   76 1    
    12    6    7 1    
    13    6   77 1    
    14    6   78 1    
    15    7    8 1    
    16    8    9 1    
    17    8   79 1    
    18    8   80 1    
    19    9   10 ar   
    20    9   14 ar   
    21   10   11 ar   
    22   10   81 1    
    23   11   12 ar   
    24   11   71 1    
    25   12   13 ar   
    26   12   82 1    
    27   13   14 ar   
    28   13   15 1    
    29   14   83 1    
    30   15   16 1    
    31   15   84 1    
    32   15   85 1    
    33   16   17 1    
    34   17   18 1    
    35   17   86 1    
    36   17   87 1    
    37   18   19 1    
    38   18   37 1    
    39   18   88 1    
    40   19   20 am   BACKBONE|DICT|INTERRES
    41   19   89 1    
    42   20   21 2    
    43   20   22 1    
    44   22   23 1    
    45   22   24 1    
    46   22   90 1    
    47   23   91 1    
    48   23   92 1    
    49   23   93 1    
    50   24   25 am   BACKBONE|DICT|INTERRES
    51   24   94 1    
    52   25   26 2    
    53   25   27 1    
    54   27   28 1    
    55   27   29 1    
    56   27   95 1    
    57   28   96 1    
    58   28   97 1    
    59   28   98 1    
    60   29   30 am   BACKBONE|DICT|INTERRES
    61   29   99 1    
    62   30   31 2    
    63   30   32 1    
    64   32   33 1    
    65   32   34 1    
    66   32  100 1    
    67   33  101 1    
    68   33  102 1    
    69   33  103 1    
    70   34   35 am   BACKBONE|DICT|INTERRES
    71   34  104 1    
    72   35   36 2    
    73   37   38 2    
    74   37   39 am   BACKBONE|DICT|INTERRES
    75   39   40 1    
    76   39  105 1    
    77   40   41 1    
    78   40   42 1    
    79   40  106 1    
    80   41  107 1    
    81   41  108 1    
    82   41  109 1    
    83   42   43 2    
    84   42   44 am   BACKBONE|DICT|INTERRES
    85   44   45 1    
    86   44  110 1    
    87   45   46 1    
    88   45   47 1    
    89   45  111 1    
    90   46  112 1    
    91   46  113 1    
    92   46  114 1    
    93   47   48 2    
    94   47   49 am   BACKBONE|DICT|INTERRES
    95   49   50 1    
    96   49  115 1    
    97   50   51 1    
    98   50   52 1    
    99   50  116 1    
   100   51  117 1    
   101   51  118 1    
   102   51  119 1    
   103   52   53 2    
   104   52   54 am   BACKBONE|DICT|INTERRES
   105   54   55 1    
   106   54  120 1    
   107   55   56 1    
   108   55   57 1    
   109   55  121 1    
   110   56  122 1    
   111   56  123 1    
   112   56  124 1    
   113   57   58 2    
   114   57   59 am   BACKBONE|DICT|INTERRES
   115   59   60 1    
   116   59  125 1    
   117   60   61 1    
   118   60   62 1    
   119   60  126 1    
   120   61  127 1    
   121   61  128 1    
   122   61  129 1    
   123   62   63 2    
   124   62   64 am   BACKBONE|DICT|INTERRES
   125   64   65 1    
   126   64  130 1    
   127   65   66 1    
   128   65   69 1    
   129   65  131 1    
   130   66   67 am   BACKBONE|DICT|INTERRES
   131   66   68 2    
   132   67  132 1    
   133   67  133 1    
   134   69   70 1    
   135   69  134 1    
   136   69  135 1    
   137   70   71 1    
   138   71  136 1    
   139   71  137 1    
@<TRIPOS>SUBSTRUCTURE
     1 UNK         1 GROUP             0       ****    0 ROOT    
