@<TRIPOS>MOLECULE
3R137
137   139    1
SMALL
USER_CHARGES


@<TRIPOS>ATOM
      1 CA         26.4648   -5.7887   -2.0118 C.3       0 UNK        -0.2020 
      2 C          26.5881   -4.9500   -0.7491 C.2       0 UNK         0.4855 
      3 O          25.8107   -5.1352    0.1873 O.2       0 UNK        -0.5197 
      4 N          27.5559   -4.0244   -0.7165 N.am      1 UNK        -0.4892 
      5 CA         27.7643   -3.0694    0.3800 C.3       1 UNK         0.0835 
      6 C6         29.2226   -2.5387    0.4192 C.3       12 UNK        -0.0855 
      7 S7         29.8072   -1.8472   -1.1706 S.3       12 UNK        -0.2931 
      8 C8         30.9678   -3.1268   -1.7512 C.3       12 UNK         0.0378 
      9 C9         30.8394   -3.3383   -3.2525 C.ar      12 UNK        -0.0802 
     10 C10        31.6228   -2.6029   -4.1470 C.ar      12 UNK        -0.0944 
     11 C11        31.5090   -2.7992   -5.5325 C.ar      12 UNK        -0.0787 
     12 C12        30.5850   -3.7382   -6.0062 C.ar      12 UNK        -0.0862 
     13 C13        29.7978   -4.4806   -5.1211 C.ar      12 UNK        -0.0733 
     14 C14        29.9372   -4.2816   -3.7468 C.ar      12 UNK        -0.0832 
     15 C15        28.8067   -5.5141   -5.6326 C.3       12 UNK         0.0240 
     16 S16        27.1381   -4.8091   -5.8173 S.3       12 UNK        -0.2522 
     17 C17        27.1483   -4.2599   -7.5594 C.3       12 UNK        -0.0967 
     18 CA         26.7745   -2.7732   -7.7677 C.3       5 UNK         0.0660 
     19 N          25.5054   -2.4058   -7.1316 N.am      5 UNK        -0.4015 
     20 C          24.8660   -1.2465   -7.3359 C.2       4 UNK         0.4946 
     21 O          25.2773   -0.3767   -8.1062 O.2       4 UNK        -0.5353 
     22 CA         23.6233   -0.9658   -6.4829 C.3       4 UNK         0.0277 
     23 CB         22.9129   -2.2368   -5.9745 C.3       4 UNK        -0.1981 
     24 N          24.0824   -0.1829   -5.3434 N.am      4 UNK        -0.4209 
     25 C          23.9345    1.1321   -5.1706 C.2       3 UNK         0.4942 
     26 O          23.2037    1.8351   -5.8704 O.2       3 UNK        -0.5208 
     27 CA         24.7668    1.7663   -4.0321 C.3       3 UNK         0.0250 
     28 CB         24.3989    3.2418   -3.7839 C.3       3 UNK        -0.1990 
     29 N          24.7086    1.0475   -2.7513 N.am      3 UNK        -0.4232 
     30 C          25.2461   -0.1483   -2.4739 C.2       2 UNK         0.4993 
     31 O          25.8021   -0.8674   -3.3117 O.2       2 UNK        -0.5286 
     32 CA         25.1088   -0.6361   -1.0287 C.3       2 UNK         0.0209 
     33 CB         23.7062   -1.2158   -0.7725 C.3       2 UNK        -0.1931 
     34 N          26.1120   -1.6681   -0.7941 N.am      2 UNK        -0.4546 
     35 C          26.7270   -1.9230    0.3670 C.2       1 UNK         0.5154 
     36 O          26.4953   -1.3057    1.4083 O.2       1 UNK        -0.5181 
     37 C          27.9331   -1.8129   -7.4226 C.2       5 UNK         0.5014 
     38 O          28.7890   -1.5931   -8.2784 O.2       5 UNK        -0.5248 
     39 N          27.9067   -1.2090   -6.2236 N.am      6 UNK        -0.4434 
     40 CA         28.8651   -0.1871   -5.7917 C.3       6 UNK         0.0363 
     41 CB         28.8326   -0.0660   -4.2628 C.3       6 UNK        -0.1936 
     42 C          28.6611    1.1904   -6.4492 C.2       6 UNK         0.5081 
     43 O          29.5269    2.0525   -6.2896 O.2       6 UNK        -0.5248 
     44 N          27.5372    1.3866   -7.1536 N.am      7 UNK        -0.4718 
     45 CA         27.2998    2.5438   -8.0162 C.3       7 UNK         0.0273 
     46 CB         25.8660    3.0576   -7.8131 C.3       7 UNK        -0.1935 
     47 C          27.5468    2.1876   -9.4908 C.2       7 UNK         0.5018 
     48 O          28.0526    3.0334  -10.2296 O.2       7 UNK        -0.5186 
     49 N          27.1835    0.9601   -9.8997 N.am      8 UNK        -0.4240 
     50 CA         27.3816    0.4399  -11.2570 C.3       8 UNK         0.0235 
     51 CB         26.6281   -0.8888  -11.4259 C.3       8 UNK        -0.2000 
     52 C          28.8671    0.2772  -11.6227 C.2       8 UNK         0.4941 
     53 O          29.2747    0.7230  -12.6966 O.2       8 UNK        -0.5273 
     54 N          29.6481   -0.3277  -10.7190 N.am      9 UNK        -0.4262 
     55 CA         31.1091   -0.3188  -10.7483 C.3       9 UNK         0.0264 
     56 CB         31.6373   -1.6868  -10.2888 C.3       9 UNK        -0.1955 
     57 C          31.5851    0.8021   -9.8163 C.2       9 UNK         0.5031 
     58 O          30.9468    1.0491   -8.7931 O.2       9 UNK        -0.5390 
     59 N          32.6889    1.4676  -10.1739 N.am      10 UNK        -0.4204 
     60 CA         33.1808    2.6981   -9.5401 C.3       10 UNK         0.0237 
     61 CB         34.1184    3.4172  -10.5302 C.3       10 UNK        -0.1985 
     62 C          33.8224    2.5093   -8.1460 C.2       10 UNK         0.4970 
     63 O          34.9112    3.0346   -7.9033 O.2       10 UNK        -0.4914 
     64 N          33.1442    1.7859   -7.2490 N.am      11 UNK        -0.4285 
     65 CA         33.5131    1.6710   -5.8305 C.3       11 UNK         0.1007 
     66 C          33.0583    2.9055   -5.0080 C.2       11 UNK         0.5703 
     67 N          31.8499    3.4171   -5.2109 N.am      11 UNK        -0.7361 
     68 O          33.8155    3.4122   -4.1836 O.2       11 UNK        -0.4986 
     69 C69        33.0033    0.3594   -5.1863 C.3       12 UNK        -0.0947 
     70 S70        33.7857   -1.1185   -5.9162 S.3       12 UNK        -0.2240 
     71 C71        32.3416   -2.0273   -6.5631 C.3       12 UNK         0.0194 
     72 H72        25.4197   -5.8680   -2.3104 H         1 UNK         0.0906 
     73 H73        27.0142   -5.3523   -2.8441 H         1 UNK         0.0906 
     74 H74        26.8464   -6.7940   -1.8359 H         1 UNK         0.0906 
     75 H75        28.1619   -3.8904   -1.5124 H         1 UNK         0.3140 
     76 H76        27.5971   -3.6032    1.3187 H         1 UNK         0.1085 
     77 H77        29.8906   -3.3412    0.7346 H         1 UNK         0.0836 
     78 H78        29.3287   -1.7693    1.1868 H         1 UNK         0.0836 
     79 H79        31.9858   -2.8308   -1.4932 H         1 UNK         0.0731 
     80 H80        30.7868   -4.0720   -1.2374 H         1 UNK         0.0731 
     81 H81        32.3175   -1.8810   -3.7460 H         1 UNK         0.1312 
     82 H82        30.4780   -3.8909   -7.0716 H         1 UNK         0.1406 
     83 H83        29.3431   -4.8675   -3.0614 H         1 UNK         0.1631 
     84 H84        28.7519   -6.3453   -4.9278 H         1 UNK         0.0717 
     85 H85        29.1487   -5.9484   -6.5731 H         1 UNK         0.0717 
     86 H86        28.1127   -4.4750   -8.0235 H         1 UNK         0.0934 
     87 H87        26.4319   -4.8846   -8.0952 H         1 UNK         0.0934 
     88 H88        26.6083   -2.6539   -8.8388 H         1 UNK         0.0739 
     89 H89        25.1319   -3.0687   -6.4676 H         1 UNK         0.3093 
     90 H90        22.9225   -0.3939   -7.0948 H         1 UNK         0.0818 
     91 H91        21.9875   -1.9789   -5.4590 H         1 UNK         0.0819 
     92 H92        22.6439   -2.8959   -6.8012 H         1 UNK         0.0819 
     93 H93        23.5237   -2.8073   -5.2736 H         1 UNK         0.0819 
     94 H94        24.7155   -0.6481   -4.6936 H         1 UNK         0.3041 
     95 H95        25.8042    1.7446   -4.3728 H         1 UNK         0.0784 
     96 H96        24.4971    3.8338   -4.6946 H         1 UNK         0.0793 
     97 H97        23.3699    3.3465   -3.4377 H         1 UNK         0.0793 
     98 H98        25.0530    3.6950   -3.0387 H         1 UNK         0.0793 
     99 H99        24.2276    1.5319   -2.0068 H         1 UNK         0.3024 
    100 H100       25.2906    0.2091   -0.3605 H         1 UNK         0.1171 
    101 H101       22.9316   -0.4657   -0.9366 H         1 UNK         0.0786 
    102 H102       23.6043   -1.5650    0.2552 H         1 UNK         0.0786 
    103 H103       23.4929   -2.0574   -1.4330 H         1 UNK         0.0786 
    104 H104       26.4039   -2.1637   -1.6268 H         1 UNK         0.2977 
    105 H105       27.1831   -1.4579   -5.5638 H         1 UNK         0.3127 
    106 H106       29.8578   -0.5285   -6.0787 H         1 UNK         0.0770 
    107 H107       27.9420    0.4559   -3.9160 H         1 UNK         0.0814 
    108 H108       29.6953    0.4937   -3.8996 H         1 UNK         0.0814 
    109 H109       28.8581   -1.0465   -3.7895 H         1 UNK         0.0814 
    110 H110       26.8727    0.6264   -7.2340 H         1 UNK         0.2983 
    111 H111       27.9847    3.3545   -7.7575 H         1 UNK         0.0947 
    112 H112       25.6688    3.9225   -8.4476 H         1 UNK         0.0806 
    113 H113       25.7029    3.3698   -6.7823 H         1 UNK         0.0806 
    114 H114       25.1205    2.2996   -8.0553 H         1 UNK         0.0806 
    115 H115       26.6908    0.3597   -9.2464 H         1 UNK         0.3000 
    116 H116       26.9457    1.1642  -11.9486 H         1 UNK         0.0850 
    117 H117       26.6487   -1.2138  -12.4669 H         1 UNK         0.0810 
    118 H118       25.5815   -0.7969  -11.1342 H         1 UNK         0.0810 
    119 H119       27.0769   -1.6845  -10.8329 H         1 UNK         0.0810 
    120 H120       29.2408   -0.6275   -9.8346 H         1 UNK         0.3040 
    121 H121       31.4730   -0.1243  -11.7593 H         1 UNK         0.0766 
    122 H122       32.7259   -1.6883  -10.2209 H         1 UNK         0.0812 
    123 H123       31.3531   -2.4717  -10.9896 H         1 UNK         0.0812 
    124 H124       31.2454   -1.9625   -9.3106 H         1 UNK         0.0812 
    125 H125       33.1863    1.1652  -10.9994 H         1 UNK         0.3205 
    126 H126       32.3192    3.3511   -9.3837 H         1 UNK         0.0754 
    127 H127       34.4423    4.3819  -10.1368 H         1 UNK         0.0769 
    128 H128       33.6197    3.6135  -11.4796 H         1 UNK         0.0769 
    129 H129       35.0145    2.8300  -10.7352 H         1 UNK         0.0769 
    130 H130       32.2379    1.4167   -7.5292 H         1 UNK         0.2981 
    131 H131       34.6032    1.6462   -5.7677 H         1 UNK         0.0541 
    132 H132       31.1737    2.9538   -5.8123 H         1 UNK         0.3459 
    133 H133       31.5664    4.2236   -4.6789 H         1 UNK         0.3459 
    134 H134       31.9180    0.2917   -5.2665 H         1 UNK         0.0612 
    135 H135       33.2306    0.3478   -4.1187 H         1 UNK         0.0612 
    136 H136       31.7013   -1.3309   -7.1041 H         1 UNK         0.0624 
    137 H137       32.7151   -2.7347   -7.3047 H         1 UNK         0.0624 
@<TRIPOS>BOND
     1    1    2 1    
     2    1   72 1    
     3    1   73 1    
     4    1   74 1    
     5    2    3 2    
     6    2    4 am   BACKBONE|DICT|INTERRES
     7    4    5 1    
     8    4   75 1    
     9    5    6 1    
    10    5   35 1    
    11    5   76 1    
    12    6    7 1    
    13    6   77 1    
    14    6   78 1    
    15    7    8 1    
    16    8    9 1    
    17    8   79 1    
    18    8   80 1    
    19    9   10 ar   
    20    9   14 ar   
    21   10   11 ar   
    22   10   81 1    
    23   11   12 ar   
    24   11   71 1    
    25   12   13 ar   
    26   12   82 1    
    27   13   14 ar   
    28   13   15 1    
    29   14   83 1    
    30   15   16 1    
    31   15   84 1    
    32   15   85 1    
    33   16   17 1    
    34   17   18 1    
    35   17   86 1    
    36   17   87 1    
    37   18   19 1    
    38   18   37 1    
    39   18   88 1    
    40   19   20 am   BACKBONE|DICT|INTERRES
    41   19   89 1    
    42   20   21 2    
    43   20   22 1    
    44   22   23 1    
    45   22   24 1    
    46   22   90 1    
    47   23   91 1    
    48   23   92 1    
    49   23   93 1    
    50   24   25 am   BACKBONE|DICT|INTERRES
    51   24   94 1    
    52   25   26 2    
    53   25   27 1    
    54   27   28 1    
    55   27   29 1    
    56   27   95 1    
    57   28   96 1    
    58   28   97 1    
    59   28   98 1    
    60   29   30 am   BACKBONE|DICT|INTERRES
    61   29   99 1    
    62   30   31 2    
    63   30   32 1    
    64   32   33 1    
    65   32   34 1    
    66   32  100 1    
    67   33  101 1    
    68   33  102 1    
    69   33  103 1    
    70   34   35 am   BACKBONE|DICT|INTERRES
    71   34  104 1    
    72   35   36 2    
    73   37   38 2    
    74   37   39 am   BACKBONE|DICT|INTERRES
    75   39   40 1    
    76   39  105 1    
    77   40   41 1    
    78   40   42 1    
    79   40  106 1    
    80   41  107 1    
    81   41  108 1    
    82   41  109 1    
    83   42   43 2    
    84   42   44 am   BACKBONE|DICT|INTERRES
    85   44   45 1    
    86   44  110 1    
    87   45   46 1    
    88   45   47 1    
    89   45  111 1    
    90   46  112 1    
    91   46  113 1    
    92   46  114 1    
    93   47   48 2    
    94   47   49 am   BACKBONE|DICT|INTERRES
    95   49   50 1    
    96   49  115 1    
    97   50   51 1    
    98   50   52 1    
    99   50  116 1    
   100   51  117 1    
   101   51  118 1    
   102   51  119 1    
   103   52   53 2    
   104   52   54 am   BACKBONE|DICT|INTERRES
   105   54   55 1    
   106   54  120 1    
   107   55   56 1    
   108   55   57 1    
   109   55  121 1    
   110   56  122 1    
   111   56  123 1    
   112   56  124 1    
   113   57   58 2    
   114   57   59 am   BACKBONE|DICT|INTERRES
   115   59   60 1    
   116   59  125 1    
   117   60   61 1    
   118   60   62 1    
   119   60  126 1    
   120   61  127 1    
   121   61  128 1    
   122   61  129 1    
   123   62   63 2    
   124   62   64 am   BACKBONE|DICT|INTERRES
   125   64   65 1    
   126   64  130 1    
   127   65   66 1    
   128   65   69 1    
   129   65  131 1    
   130   66   67 am   BACKBONE|DICT|INTERRES
   131   66   68 2    
   132   67  132 1    
   133   67  133 1    
   134   69   70 1    
   135   69  134 1    
   136   69  135 1    
   137   70   71 1    
   138   71  136 1    
   139   71  137 1    
@<TRIPOS>SUBSTRUCTURE
     1 UNK         1 GROUP             0       ****    0 ROOT    
