@<TRIPOS>MOLECULE
3R137
137   139    1
SMALL
USER_CHARGES


@<TRIPOS>ATOM
      1 CA         32.0119    0.5577   -1.4750 C.3       0 UNK        -0.2020 
      2 C          30.8317   -0.3387   -1.1390 C.2       0 UNK         0.4855 
      3 O          30.2794   -0.2276   -0.0438 O.2       0 UNK        -0.5197 
      4 N          30.4551   -1.2309   -2.0665 N.am      1 UNK        -0.4892 
      5 CA         29.3371   -2.1763   -1.9464 C.3       1 UNK         0.0835 
      6 C6         29.5662   -3.1965   -0.7876 C.3       12 UNK        -0.0855 
      7 S7         28.7285   -4.8010   -1.0284 S.3       12 UNK        -0.2931 
      8 C8         30.0445   -5.7900   -1.8133 C.3       12 UNK         0.0378 
      9 C9         30.3497   -5.2753   -3.2107 C.ar      12 UNK        -0.0802 
     10 C10        31.5146   -4.5422   -3.4630 C.ar      12 UNK        -0.0944 
     11 C11        31.7475   -4.0041   -4.7322 C.ar      12 UNK        -0.0787 
     12 C12        30.8160   -4.2151   -5.7516 C.ar      12 UNK        -0.0862 
     13 C13        29.6439   -4.9349   -5.5068 C.ar      12 UNK        -0.0733 
     14 C14        29.4275   -5.4829   -4.2403 C.ar      12 UNK        -0.0832 
     15 C15        28.5840   -5.0654   -6.5924 C.3       12 UNK         0.0240 
     16 S16        27.0277   -4.2320   -6.1281 S.3       12 UNK        -0.2522 
     17 C17        27.5764   -2.5177   -5.8166 C.3       12 UNK        -0.0967 
     18 CA         26.9849   -1.5182   -6.8324 C.3       5 UNK         0.0660 
     19 N          25.5209   -1.4585   -6.7624 N.am      5 UNK        -0.4015 
     20 C          24.7338   -0.7106   -7.5493 C.2       4 UNK         0.4946 
     21 O          25.1601    0.0077   -8.4539 O.2       4 UNK        -0.5353 
     22 CA         23.2244   -0.7145   -7.2586 C.3       4 UNK         0.0277 
     23 CB         22.5101   -1.7114   -8.1846 C.3       4 UNK        -0.1981 
     24 N          22.8612   -0.9964   -5.8649 N.am      4 UNK        -0.4209 
     25 C          23.2786   -0.3159   -4.7867 C.2       3 UNK         0.4942 
     26 O          24.0910    0.6106   -4.8354 O.2       3 UNK        -0.5208 
     27 CA         22.6851   -0.7227   -3.4232 C.3       3 UNK         0.0250 
     28 CB         21.8495   -2.0248   -3.4505 C.3       3 UNK        -0.1990 
     29 N          23.7061   -0.7897   -2.3721 N.am      3 UNK        -0.4232 
     30 C          24.7852   -1.5851   -2.3428 C.2       2 UNK         0.4993 
     31 O          25.0801   -2.3909   -3.2295 O.2       2 UNK        -0.5286 
     32 CA         25.6350   -1.4927   -1.0633 C.3       2 UNK         0.0209 
     33 CB         24.9531   -2.2487    0.0904 C.3       2 UNK        -0.1931 
     34 N          26.9825   -2.0348   -1.2352 N.am      2 UNK        -0.4546 
     35 C          27.9734   -1.4416   -1.9099 C.2       1 UNK         0.5154 
     36 O          27.8416   -0.3619   -2.4935 O.2       1 UNK        -0.5181 
     37 C          27.6580   -0.1403   -6.6712 C.2       5 UNK         0.5014 
     38 O          28.7017    0.0838   -7.2866 O.2       5 UNK        -0.5248 
     39 N          27.0371    0.7765   -5.9135 N.am      6 UNK        -0.4434 
     40 CA         27.4977    2.1571   -5.7439 C.3       6 UNK         0.0363 
     41 CB         26.6563    2.8395   -4.6546 C.3       6 UNK        -0.1936 
     42 C          27.4787    2.9873   -7.0434 C.2       6 UNK         0.5081 
     43 O          28.1995    3.9820   -7.1201 O.2       6 UNK        -0.5248 
     44 N          26.6786    2.5694   -8.0339 N.am      7 UNK        -0.4718 
     45 CA         26.6288    3.1591   -9.3709 C.3       7 UNK         0.0273 
     46 CB         25.1644    3.4443   -9.7439 C.3       7 UNK        -0.1935 
     47 C          27.2780    2.2334  -10.4107 C.2       7 UNK         0.5018 
     48 O          28.0317    2.7171  -11.2552 O.2       7 UNK        -0.5186 
     49 N          26.9615    0.9310  -10.3500 N.am      8 UNK        -0.4240 
     50 CA         27.3799   -0.0758  -11.3280 C.3       8 UNK         0.0235 
     51 CB         26.5366   -1.3495  -11.1509 C.3       8 UNK        -0.2000 
     52 C          28.8788   -0.4066  -11.2740 C.2       8 UNK         0.4941 
     53 O          29.4979   -0.5368  -12.3311 O.2       8 UNK        -0.5273 
     54 N          29.4300   -0.5415  -10.0607 N.am      9 UNK        -0.4262 
     55 CA         30.8556   -0.7830   -9.8292 C.3       9 UNK         0.0264 
     56 CB         31.0391   -1.8705   -8.7563 C.3       9 UNK        -0.1955 
     57 C          31.5594    0.5148   -9.4162 C.2       9 UNK         0.5031 
     58 O          32.6475    0.7925   -9.9217 O.2       9 UNK        -0.5390 
     59 N          30.9234    1.2782   -8.5120 N.am      10 UNK        -0.4204 
     60 CA         31.3912    2.5446   -7.9332 C.3       10 UNK         0.0237 
     61 CB         31.4079    3.6618   -8.9976 C.3       10 UNK        -0.1985 
     62 C          32.7277    2.3984   -7.1778 C.2       10 UNK         0.4970 
     63 O          33.5801    3.2860   -7.2399 O.2       10 UNK        -0.4914 
     64 N          32.8772    1.2676   -6.4777 N.am      11 UNK        -0.4285 
     65 CA         34.0572    0.8853   -5.6889 C.3       11 UNK         0.1007 
     66 C          34.2552    1.6645   -4.3545 C.2       11 UNK         0.5703 
     67 N          33.3447    2.5422   -3.9497 N.am      11 UNK        -0.7361 
     68 O          35.2657    1.4802   -3.6804 O.2       11 UNK        -0.4986 
     69 C69        34.1264   -0.6558   -5.5017 C.3       12 UNK        -0.0947 
     70 S70        32.5958   -1.3918   -4.8315 S.3       12 UNK        -0.2240 
     71 C71        32.9812   -3.1600   -5.0037 C.3       12 UNK         0.0194 
     72 H72        32.6595    0.6739   -0.6063 H         1 UNK         0.0906 
     73 H73        32.6136    0.1469   -2.2839 H         1 UNK         0.0906 
     74 H74        31.6590    1.5446   -1.7720 H         1 UNK         0.0906 
     75 H75        30.9397   -1.2507   -2.9546 H         1 UNK         0.3140 
     76 H76        29.3305   -2.7242   -2.8890 H         1 UNK         0.1085 
     77 H77        30.6331   -3.3973   -0.6772 H         1 UNK         0.0836 
     78 H78        29.2606   -2.7757    0.1723 H         1 UNK         0.0836 
     79 H79        29.7204   -6.8301   -1.8731 H         1 UNK         0.0731 
     80 H80        30.9376   -5.7826   -1.1864 H         1 UNK         0.0731 
     81 H81        32.2228   -4.3622   -2.6656 H         1 UNK         0.1312 
     82 H82        30.9900   -3.7854   -6.7271 H         1 UNK         0.1406 
     83 H83        28.5124   -6.0243   -4.0403 H         1 UNK         0.1631 
     84 H84        28.3822   -6.1219   -6.7735 H         1 UNK         0.0717 
     85 H85        28.9381   -4.6510   -7.5377 H         1 UNK         0.0717 
     86 H86        27.2870   -2.2470   -4.7998 H         1 UNK         0.0934 
     87 H87        28.6657   -2.4707   -5.8362 H         1 UNK         0.0934 
     88 H88        27.2391   -1.8698   -7.8338 H         1 UNK         0.0739 
     89 H89        25.0912   -2.0080   -6.0308 H         1 UNK         0.3093 
     90 H90        22.8571    0.2879   -7.4883 H         1 UNK         0.0818 
     91 H91        21.4268   -1.6451   -8.0817 H         1 UNK         0.0819 
     92 H92        22.7456   -1.5100   -9.2309 H         1 UNK         0.0819 
     93 H93        22.8067   -2.7403   -7.9766 H         1 UNK         0.0819 
     94 H94        22.2025   -1.7477   -5.7177 H         1 UNK         0.3041 
     95 H95        22.0140    0.0897   -3.1407 H         1 UNK         0.0784 
     96 H96        20.9854   -1.9326   -4.1097 H         1 UNK         0.0793 
     97 H97        22.4356   -2.8833   -3.7814 H         1 UNK         0.0793 
     98 H98        21.4613   -2.2585   -2.4589 H         1 UNK         0.0793 
     99 H99        23.5698   -0.1469   -1.6043 H         1 UNK         0.3024 
    100 H100       25.7278   -0.4386   -0.7909 H         1 UNK         0.1171 
    101 H101       25.5254   -2.1631    1.0145 H         1 UNK         0.0786 
    102 H102       23.9576   -1.8510    0.2923 H         1 UNK         0.0786 
    103 H103       24.8392   -3.3098   -0.1364 H         1 UNK         0.0786 
    104 H104       27.1585   -2.9536   -0.8503 H         1 UNK         0.2977 
    105 H105       26.1580    0.5365   -5.4663 H         1 UNK         0.3127 
    106 H106       28.5333    2.1177   -5.3996 H         1 UNK         0.0770 
    107 H107       25.6075    2.9145   -4.9444 H         1 UNK         0.0814 
    108 H108       27.0148    3.8512   -4.4603 H         1 UNK         0.0814 
    109 H109       26.7062    2.2906   -3.7137 H         1 UNK         0.0814 
    110 H110       26.1294    1.7286   -7.8928 H         1 UNK         0.2983 
    111 H111       27.1716    4.1069   -9.3920 H         1 UNK         0.0947 
    112 H112       25.0928    3.8764  -10.7431 H         1 UNK         0.0806 
    113 H113       24.7128    4.1545   -9.0511 H         1 UNK         0.0806 
    114 H114       24.5576    2.5377   -9.7350 H         1 UNK         0.0806 
    115 H115       26.3009    0.6192   -9.6384 H         1 UNK         0.3000 
    116 H116       27.1710    0.3262  -12.3220 H         1 UNK         0.0850 
    117 H117       26.8003   -2.0994  -11.8980 H         1 UNK         0.0810 
    118 H118       25.4729   -1.1391  -11.2645 H         1 UNK         0.0810 
    119 H119       26.6829   -1.8013  -10.1699 H         1 UNK         0.0810 
    120 H120       28.8608   -0.3762   -9.2386 H         1 UNK         0.3040 
    121 H121       31.3321   -1.1423  -10.7440 H         1 UNK         0.0766 
    122 H122       30.6254   -1.5765   -7.7920 H         1 UNK         0.0812 
    123 H123       32.0972   -2.0855   -8.6000 H         1 UNK         0.0812 
    124 H124       30.5597   -2.8024   -9.0560 H         1 UNK         0.0812 
    125 H125       30.0578    0.9126   -8.1152 H         1 UNK         0.3205 
    126 H126       30.6547    2.8227   -7.1791 H         1 UNK         0.0754 
    127 H127       31.6305    4.6292   -8.5460 H         1 UNK         0.0769 
    128 H128       30.4383    3.7509   -9.4886 H         1 UNK         0.0769 
    129 H129       32.1591    3.4793   -9.7666 H         1 UNK         0.0769 
    130 H130       32.1211    0.5995   -6.4674 H         1 UNK         0.2981 
    131 H131       34.9271    1.1582   -6.2893 H         1 UNK         0.0541 
    132 H132       32.5226    2.7182   -4.5022 H         1 UNK         0.3459 
    133 H133       33.4998    3.0516   -3.0947 H         1 UNK         0.3459 
    134 H134       34.9672   -0.9416   -4.8670 H         1 UNK         0.0612 
    135 H135       34.3191   -1.1185   -6.4709 H         1 UNK         0.0612 
    136 H136       33.3487   -3.3592   -6.0117 H         1 UNK         0.0624 
    137 H137       33.7880   -3.4242   -4.3183 H         1 UNK         0.0624 
@<TRIPOS>BOND
     1    1    2 1    
     2    1   72 1    
     3    1   73 1    
     4    1   74 1    
     5    2    3 2    
     6    2    4 am   BACKBONE|DICT|INTERRES
     7    4    5 1    
     8    4   75 1    
     9    5    6 1    
    10    5   35 1    
    11    5   76 1    
    12    6    7 1    
    13    6   77 1    
    14    6   78 1    
    15    7    8 1    
    16    8    9 1    
    17    8   79 1    
    18    8   80 1    
    19    9   10 ar   
    20    9   14 ar   
    21   10   11 ar   
    22   10   81 1    
    23   11   12 ar   
    24   11   71 1    
    25   12   13 ar   
    26   12   82 1    
    27   13   14 ar   
    28   13   15 1    
    29   14   83 1    
    30   15   16 1    
    31   15   84 1    
    32   15   85 1    
    33   16   17 1    
    34   17   18 1    
    35   17   86 1    
    36   17   87 1    
    37   18   19 1    
    38   18   37 1    
    39   18   88 1    
    40   19   20 am   BACKBONE|DICT|INTERRES
    41   19   89 1    
    42   20   21 2    
    43   20   22 1    
    44   22   23 1    
    45   22   24 1    
    46   22   90 1    
    47   23   91 1    
    48   23   92 1    
    49   23   93 1    
    50   24   25 am   BACKBONE|DICT|INTERRES
    51   24   94 1    
    52   25   26 2    
    53   25   27 1    
    54   27   28 1    
    55   27   29 1    
    56   27   95 1    
    57   28   96 1    
    58   28   97 1    
    59   28   98 1    
    60   29   30 am   BACKBONE|DICT|INTERRES
    61   29   99 1    
    62   30   31 2    
    63   30   32 1    
    64   32   33 1    
    65   32   34 1    
    66   32  100 1    
    67   33  101 1    
    68   33  102 1    
    69   33  103 1    
    70   34   35 am   BACKBONE|DICT|INTERRES
    71   34  104 1    
    72   35   36 2    
    73   37   38 2    
    74   37   39 am   BACKBONE|DICT|INTERRES
    75   39   40 1    
    76   39  105 1    
    77   40   41 1    
    78   40   42 1    
    79   40  106 1    
    80   41  107 1    
    81   41  108 1    
    82   41  109 1    
    83   42   43 2    
    84   42   44 am   BACKBONE|DICT|INTERRES
    85   44   45 1    
    86   44  110 1    
    87   45   46 1    
    88   45   47 1    
    89   45  111 1    
    90   46  112 1    
    91   46  113 1    
    92   46  114 1    
    93   47   48 2    
    94   47   49 am   BACKBONE|DICT|INTERRES
    95   49   50 1    
    96   49  115 1    
    97   50   51 1    
    98   50   52 1    
    99   50  116 1    
   100   51  117 1    
   101   51  118 1    
   102   51  119 1    
   103   52   53 2    
   104   52   54 am   BACKBONE|DICT|INTERRES
   105   54   55 1    
   106   54  120 1    
   107   55   56 1    
   108   55   57 1    
   109   55  121 1    
   110   56  122 1    
   111   56  123 1    
   112   56  124 1    
   113   57   58 2    
   114   57   59 am   BACKBONE|DICT|INTERRES
   115   59   60 1    
   116   59  125 1    
   117   60   61 1    
   118   60   62 1    
   119   60  126 1    
   120   61  127 1    
   121   61  128 1    
   122   61  129 1    
   123   62   63 2    
   124   62   64 am   BACKBONE|DICT|INTERRES
   125   64   65 1    
   126   64  130 1    
   127   65   66 1    
   128   65   69 1    
   129   65  131 1    
   130   66   67 am   BACKBONE|DICT|INTERRES
   131   66   68 2    
   132   67  132 1    
   133   67  133 1    
   134   69   70 1    
   135   69  134 1    
   136   69  135 1    
   137   70   71 1    
   138   71  136 1    
   139   71  137 1    
@<TRIPOS>SUBSTRUCTURE
     1 UNK         1 GROUP             0       ****    0 ROOT    
