@<TRIPOS>MOLECULE
3R137
137   139    1
SMALL
USER_CHARGES


@<TRIPOS>ATOM
      1 CA         24.5863   -5.3144    1.4191 C.3       0 UNK        -0.2020 
      2 C          26.1080   -5.3940    1.3261 C.2       0 UNK         0.4855 
      3 O          26.6582   -6.4905    1.4043 O.2       0 UNK        -0.5197 
      4 N          26.8356   -4.2785    1.1689 N.am      1 UNK        -0.4892 
      5 CA         26.3531   -2.9002    0.9967 C.3       1 UNK         0.0835 
      6 C6         27.4884   -1.8605    1.1968 C.3       12 UNK        -0.0855 
      7 S7         29.0331   -2.2451    0.2963 S.3       12 UNK        -0.2931 
      8 C8         28.9175   -1.1106   -1.1189 C.3       12 UNK         0.0378 
      9 C9         30.0319   -1.3731   -2.1200 C.ar      12 UNK        -0.0802 
     10 C10        31.0932   -0.4737   -2.2578 C.ar      12 UNK        -0.0944 
     11 C11        32.1233   -0.7253   -3.1702 C.ar      12 UNK        -0.0787 
     12 C12        32.0875   -1.8912   -3.9415 C.ar      12 UNK        -0.0862 
     13 C13        31.0164   -2.7823   -3.8346 C.ar      12 UNK        -0.0733 
     14 C14        29.9945   -2.5194   -2.9177 C.ar      12 UNK        -0.0832 
     15 C15        30.9751   -4.0369   -4.6963 C.3       12 UNK         0.0240 
     16 S16        30.4309   -3.6899   -6.4009 S.3       12 UNK        -0.2522 
     17 C17        28.6733   -3.2592   -6.1549 C.3       12 UNK        -0.0967 
     18 CA         28.1991   -2.0909   -7.0509 C.3       5 UNK         0.0660 
     19 N          26.7497   -1.9168   -7.0045 N.am      5 UNK        -0.4015 
     20 C          26.0513   -1.2395   -7.9261 C.2       4 UNK         0.4946 
     21 O          26.5461   -0.7807   -8.9557 O.2       4 UNK        -0.5353 
     22 CA         24.5581   -1.0045   -7.6389 C.3       4 UNK         0.0277 
     23 CB         23.7128   -2.1536   -8.2097 C.3       4 UNK        -0.1981 
     24 N          24.2684   -0.8403   -6.2107 N.am      4 UNK        -0.4209 
     25 C          24.7017    0.1892   -5.4683 C.2       3 UNK         0.4942 
     26 O          25.3421    1.1347   -5.9232 O.2       3 UNK        -0.5208 
     27 CA         24.4191    0.1352   -3.9581 C.3       3 UNK         0.0250 
     28 CB         23.0554    0.7690   -3.6426 C.3       3 UNK        -0.1990 
     29 N          24.4792   -1.2152   -3.3886 N.am      3 UNK        -0.4232 
     30 C          25.5562   -2.0123   -3.4089 C.2       2 UNK         0.4993 
     31 O          26.6224   -1.7090   -3.9500 O.2       2 UNK        -0.5286 
     32 CA         25.4114   -3.3835   -2.7248 C.3       2 UNK         0.0209 
     33 CB         26.0386   -4.5018   -3.5760 C.3       2 UNK        -0.1931 
     34 N          26.0131   -3.4063   -1.3895 N.am      2 UNK        -0.4546 
     35 C          25.6062   -2.6818   -0.3366 C.2       1 UNK         0.5154 
     36 O          24.6531   -1.9032   -0.3695 O.2       1 UNK        -0.5181 
     37 C          28.8954   -0.7533   -6.7337 C.2       5 UNK         0.5014 
     38 O          29.7425   -0.3175   -7.5125 O.2       5 UNK        -0.5248 
     39 N          28.4902   -0.1093   -5.6293 N.am      6 UNK        -0.4434 
     40 CA         29.0343    1.1676   -5.1617 C.3       6 UNK         0.0363 
     41 CB         28.3638    1.5579   -3.8349 C.3       6 UNK        -0.1936 
     42 C          28.8959    2.3152   -6.1773 C.2       6 UNK         0.5081 
     43 O          29.8802    3.0021   -6.4502 O.2       6 UNK        -0.5248 
     44 N          27.6767    2.5168   -6.6936 N.am      7 UNK        -0.4718 
     45 CA         27.3384    3.6119   -7.5983 C.3       7 UNK         0.0273 
     46 CB         25.8943    4.0799   -7.3366 C.3       7 UNK        -0.1935 
     47 C          27.5631    3.2186   -9.0632 C.2       7 UNK         0.5018 
     48 O          28.5247    3.6899   -9.6694 O.2       7 UNK        -0.5186 
     49 N          26.6613    2.3942   -9.6169 N.am      8 UNK        -0.4240 
     50 CA         26.5693    2.1076  -11.0534 C.3       8 UNK         0.0235 
     51 CB         25.2810    1.3252  -11.3592 C.3       8 UNK        -0.2000 
     52 C          27.8043    1.4038  -11.6373 C.2       8 UNK         0.4941 
     53 O          28.2647    1.7993  -12.7093 O.2       8 UNK        -0.5273 
     54 N          28.3377    0.4045  -10.9216 N.am      9 UNK        -0.4262 
     55 CA         29.5737   -0.2905  -11.3013 C.3       9 UNK         0.0264 
     56 CB         29.5516   -1.7290  -10.7598 C.3       9 UNK        -0.1955 
     57 C          30.8498    0.4402  -10.8394 C.2       9 UNK         0.5031 
     58 O          31.9413   -0.0130  -11.1871 O.2       9 UNK        -0.5390 
     59 N          30.7105    1.5234  -10.0572 N.am      10 UNK        -0.4204 
     60 CA         31.7778    2.3587   -9.4880 C.3       10 UNK         0.0237 
     61 CB         32.4168    3.2261  -10.5929 C.3       10 UNK        -0.1985 
     62 C          32.8182    1.5584   -8.6752 C.2       10 UNK         0.4970 
     63 O          34.0194    1.8039   -8.8031 O.2       10 UNK        -0.4914 
     64 N          32.3309    0.5942   -7.8853 N.am      11 UNK        -0.4285 
     65 CA         33.0942   -0.4027   -7.1205 C.3       11 UNK         0.1007 
     66 C          33.8103   -1.4827   -7.9878 C.2       11 UNK         0.5703 
     67 N          33.5944   -1.5585   -9.2963 N.am      11 UNK        -0.7361 
     68 O          34.5578   -2.3010   -7.4569 O.2       11 UNK        -0.4986 
     69 C69        34.0335    0.2140   -6.0418 C.3       12 UNK        -0.0947 
     70 S70        33.1604    1.2568   -4.8221 S.3       12 UNK        -0.2240 
     71 C71        33.2803    0.2552   -3.3037 C.3       12 UNK         0.0194 
     72 H72        24.2632   -4.5293    2.1011 H         1 UNK         0.0906 
     73 H73        24.1484   -5.1340    0.4379 H         1 UNK         0.0906 
     74 H74        24.1811   -6.2545    1.7933 H         1 UNK         0.0906 
     75 H75        27.8420   -4.3675    1.1215 H         1 UNK         0.3140 
     76 H76        25.6212   -2.7093    1.7838 H         1 UNK         0.1085 
     77 H77        27.1502   -0.8514    0.9510 H         1 UNK         0.0836 
     78 H78        27.7442   -1.8220    2.2569 H         1 UNK         0.0836 
     79 H79        28.9544   -0.0816   -0.7578 H         1 UNK         0.0731 
     80 H80        27.9540   -1.2316   -1.6135 H         1 UNK         0.0731 
     81 H81        31.1202    0.4206   -1.6503 H         1 UNK         0.1312 
     82 H82        32.8888   -2.1037   -4.6347 H         1 UNK         0.1406 
     83 H83        29.1681   -3.2085   -2.8140 H         1 UNK         0.1631 
     84 H84        30.3200   -4.7895   -4.2544 H         1 UNK         0.0717 
     85 H85        31.9698   -4.4836   -4.7310 H         1 UNK         0.0717 
     86 H86        28.0870   -4.1531   -6.3731 H         1 UNK         0.0934 
     87 H87        28.4871   -3.0320   -5.1081 H         1 UNK         0.0934 
     88 H88        28.4490   -2.3616   -8.0764 H         1 UNK         0.0739 
     89 H89        26.2910   -2.1917   -6.1476 H         1 UNK         0.3093 
     90 H90        24.2690   -0.0825   -8.1481 H         1 UNK         0.0818 
     91 H91        22.6467   -1.9602   -8.0890 H         1 UNK         0.0819 
     92 H92        23.8980   -2.2786   -9.2777 H         1 UNK         0.0819 
     93 H93        23.9398   -3.1046   -7.7263 H         1 UNK         0.0819 
     94 H94        23.7338   -1.5686   -5.7600 H         1 UNK         0.3041 
     95 H95        25.1901    0.7279   -3.4624 H         1 UNK         0.0784 
     96 H96        22.9968    1.7845   -4.0374 H         1 UNK         0.0793 
     97 H97        22.2331    0.2010   -4.0795 H         1 UNK         0.0793 
     98 H98        22.8869    0.8321   -2.5672 H         1 UNK         0.0793 
     99 H99        23.6634   -1.5226   -2.8776 H         1 UNK         0.3024 
    100 H100       24.3471   -3.6052   -2.6184 H         1 UNK         0.1171 
    101 H101       25.6412   -4.4935   -4.5918 H         1 UNK         0.0786 
    102 H102       27.1215   -4.4004   -3.6474 H         1 UNK         0.0786 
    103 H103       25.8249   -5.4846   -3.1552 H         1 UNK         0.0786 
    104 H104       26.8074   -4.0157   -1.2583 H         1 UNK         0.2977 
    105 H105       27.7932   -0.5547   -5.0387 H         1 UNK         0.3127 
    106 H106       30.0985    1.0107   -4.9747 H         1 UNK         0.0770 
    107 H107       27.3063    1.7868   -3.9665 H         1 UNK         0.0814 
    108 H108       28.8383    2.4413   -3.4060 H         1 UNK         0.0814 
    109 H109       28.4387    0.7598   -3.1011 H         1 UNK         0.0814 
    110 H110       26.9105    1.9077   -6.4084 H         1 UNK         0.2983 
    111 H111       27.9912    4.4630   -7.3900 H         1 UNK         0.0947 
    112 H112       25.6212    4.8953   -8.0078 H         1 UNK         0.0806 
    113 H113       25.7824    4.4504   -6.3175 H         1 UNK         0.0806 
    114 H114       25.1637    3.2832   -7.4769 H         1 UNK         0.0806 
    115 H115       25.9409    2.0030   -9.0280 H         1 UNK         0.3000 
    116 H116       26.4902    3.0726  -11.5591 H         1 UNK         0.0850 
    117 H117       25.2696    0.3471  -10.8798 H         1 UNK         0.0810 
    118 H118       25.1752    1.1586  -12.4321 H         1 UNK         0.0810 
    119 H119       24.3966    1.8709  -11.0299 H         1 UNK         0.0810 
    120 H120       27.8569    0.0897  -10.0805 H         1 UNK         0.3040 
    121 H121       29.6152   -0.3549  -12.3907 H         1 UNK         0.0766 
    122 H122       29.8038   -1.7610   -9.7020 H         1 UNK         0.0812 
    123 H123       30.2914   -2.3426  -11.2751 H         1 UNK         0.0812 
    124 H124       28.5799   -2.2035  -10.8977 H         1 UNK         0.0812 
    125 H125       29.7694    1.8236   -9.8352 H         1 UNK         0.3205 
    126 H126       31.2925    3.0319   -8.7801 H         1 UNK         0.0754 
    127 H127       33.1326    3.9334  -10.1722 H         1 UNK         0.0769 
    128 H128       31.6623    3.8075  -11.1231 H         1 UNK         0.0769 
    129 H129       32.9488    2.6181  -11.3255 H         1 UNK         0.0769 
    130 H130       31.3228    0.4438   -7.8600 H         1 UNK         0.2981 
    131 H131       32.3254   -0.9652   -6.5925 H         1 UNK         0.0541 
    132 H132       32.9900   -0.8995   -9.7765 H         1 UNK         0.3459 
    133 H133       34.0626   -2.2765   -9.8247 H         1 UNK         0.3459 
    134 H134       34.8092    0.8201   -6.5106 H         1 UNK         0.0612 
    135 H135       34.5685   -0.5714   -5.5071 H         1 UNK         0.0612 
    136 H136       33.2917    0.9362   -2.4515 H         1 UNK         0.0624 
    137 H137       34.2312   -0.2778   -3.2686 H         1 UNK         0.0624 
@<TRIPOS>BOND
     1    1    2 1    
     2    1   72 1    
     3    1   73 1    
     4    1   74 1    
     5    2    3 2    
     6    2    4 am   BACKBONE|DICT|INTERRES
     7    4    5 1    
     8    4   75 1    
     9    5    6 1    
    10    5   35 1    
    11    5   76 1    
    12    6    7 1    
    13    6   77 1    
    14    6   78 1    
    15    7    8 1    
    16    8    9 1    
    17    8   79 1    
    18    8   80 1    
    19    9   10 ar   
    20    9   14 ar   
    21   10   11 ar   
    22   10   81 1    
    23   11   12 ar   
    24   11   71 1    
    25   12   13 ar   
    26   12   82 1    
    27   13   14 ar   
    28   13   15 1    
    29   14   83 1    
    30   15   16 1    
    31   15   84 1    
    32   15   85 1    
    33   16   17 1    
    34   17   18 1    
    35   17   86 1    
    36   17   87 1    
    37   18   19 1    
    38   18   37 1    
    39   18   88 1    
    40   19   20 am   BACKBONE|DICT|INTERRES
    41   19   89 1    
    42   20   21 2    
    43   20   22 1    
    44   22   23 1    
    45   22   24 1    
    46   22   90 1    
    47   23   91 1    
    48   23   92 1    
    49   23   93 1    
    50   24   25 am   BACKBONE|DICT|INTERRES
    51   24   94 1    
    52   25   26 2    
    53   25   27 1    
    54   27   28 1    
    55   27   29 1    
    56   27   95 1    
    57   28   96 1    
    58   28   97 1    
    59   28   98 1    
    60   29   30 am   BACKBONE|DICT|INTERRES
    61   29   99 1    
    62   30   31 2    
    63   30   32 1    
    64   32   33 1    
    65   32   34 1    
    66   32  100 1    
    67   33  101 1    
    68   33  102 1    
    69   33  103 1    
    70   34   35 am   BACKBONE|DICT|INTERRES
    71   34  104 1    
    72   35   36 2    
    73   37   38 2    
    74   37   39 am   BACKBONE|DICT|INTERRES
    75   39   40 1    
    76   39  105 1    
    77   40   41 1    
    78   40   42 1    
    79   40  106 1    
    80   41  107 1    
    81   41  108 1    
    82   41  109 1    
    83   42   43 2    
    84   42   44 am   BACKBONE|DICT|INTERRES
    85   44   45 1    
    86   44  110 1    
    87   45   46 1    
    88   45   47 1    
    89   45  111 1    
    90   46  112 1    
    91   46  113 1    
    92   46  114 1    
    93   47   48 2    
    94   47   49 am   BACKBONE|DICT|INTERRES
    95   49   50 1    
    96   49  115 1    
    97   50   51 1    
    98   50   52 1    
    99   50  116 1    
   100   51  117 1    
   101   51  118 1    
   102   51  119 1    
   103   52   53 2    
   104   52   54 am   BACKBONE|DICT|INTERRES
   105   54   55 1    
   106   54  120 1    
   107   55   56 1    
   108   55   57 1    
   109   55  121 1    
   110   56  122 1    
   111   56  123 1    
   112   56  124 1    
   113   57   58 2    
   114   57   59 am   BACKBONE|DICT|INTERRES
   115   59   60 1    
   116   59  125 1    
   117   60   61 1    
   118   60   62 1    
   119   60  126 1    
   120   61  127 1    
   121   61  128 1    
   122   61  129 1    
   123   62   63 2    
   124   62   64 am   BACKBONE|DICT|INTERRES
   125   64   65 1    
   126   64  130 1    
   127   65   66 1    
   128   65   69 1    
   129   65  131 1    
   130   66   67 am   BACKBONE|DICT|INTERRES
   131   66   68 2    
   132   67  132 1    
   133   67  133 1    
   134   69   70 1    
   135   69  134 1    
   136   69  135 1    
   137   70   71 1    
   138   71  136 1    
   139   71  137 1    
@<TRIPOS>SUBSTRUCTURE
     1 UNK         1 GROUP             0       ****    0 ROOT    
