@<TRIPOS>MOLECULE
3R137
137   139    1
SMALL
USER_CHARGES


@<TRIPOS>ATOM
      1 CA         27.4435   -5.2967   -9.2412 C.3       0 UNK        -0.2020 
      2 C          27.0086   -5.5466   -7.8048 C.2       0 UNK         0.4855 
      3 O          26.1682   -6.4137   -7.5636 O.2       0 UNK        -0.5197 
      4 N          27.5883   -4.8101   -6.8490 N.am      1 UNK        -0.4892 
      5 CA         27.2809   -4.9204   -5.4201 C.3       1 UNK         0.0835 
      6 C6         28.4511   -4.3918   -4.5556 C.3       12 UNK        -0.0855 
      7 S7         28.4219   -5.0738   -2.8648 S.3       12 UNK        -0.2931 
      8 C8         30.1383   -4.7796   -2.3342 C.3       12 UNK         0.0378 
      9 C9         30.5122   -3.3019   -2.3305 C.ar      12 UNK        -0.0802 
     10 C10        31.6393   -2.8632   -3.0305 C.ar      12 UNK        -0.0944 
     11 C11        32.0352   -1.5224   -2.9951 C.ar      12 UNK        -0.0787 
     12 C12        31.2617   -0.6082   -2.2623 C.ar      12 UNK        -0.0862 
     13 C13        30.1271   -1.0327   -1.5598 C.ar      12 UNK        -0.0733 
     14 C14        29.7621   -2.3806   -1.5948 C.ar      12 UNK        -0.0832 
     15 C15        29.3184   -0.0520   -0.7184 C.3       12 UNK         0.0240 
     16 S16        27.6927    0.3287   -1.4512 S.3       12 UNK        -0.2522 
     17 C17        28.1775    1.2501   -2.9451 C.3       12 UNK        -0.0967 
     18 CA         27.9030    0.4285   -4.2352 C.3       5 UNK         0.0660 
     19 N          26.4676    0.2923   -4.5216 N.am      5 UNK        -0.4015 
     20 C          25.6566    1.2226   -5.0564 C.2       4 UNK         0.4946 
     21 O          26.0273    2.3381   -5.4284 O.2       4 UNK        -0.5353 
     22 CA         24.1693    0.8584   -5.2045 C.3       4 UNK         0.0277 
     23 CB         23.9118    0.1803   -6.5590 C.3       4 UNK        -0.1981 
     24 N          23.6737   -0.0115   -4.1390 N.am      4 UNK        -0.4209 
     25 C          23.5772    0.3164   -2.8423 C.2       3 UNK         0.4942 
     26 O          23.8241    1.4392   -2.4011 O.2       3 UNK        -0.5208 
     27 CA         23.1184   -0.7893   -1.8692 C.3       3 UNK         0.0250 
     28 CB         21.7036   -0.4935   -1.3434 C.3       3 UNK        -0.1990 
     29 N          23.1394   -2.1407   -2.4446 N.am      3 UNK        -0.4232 
     30 C          24.2480   -2.8114   -2.7880 C.2       2 UNK         0.4993 
     31 O          25.3842   -2.3664   -2.6122 O.2       2 UNK        -0.5286 
     32 CA         24.0409   -4.1982   -3.4335 C.3       2 UNK         0.0209 
     33 CB         22.8718   -4.2237   -4.4459 C.3       2 UNK        -0.1931 
     34 N          25.2659   -4.7262   -4.0486 N.am      2 UNK        -0.4546 
     35 C          25.9549   -4.2080   -5.0768 C.2       1 UNK         0.5154 
     36 O          25.6091   -3.2086   -5.7138 O.2       1 UNK        -0.5181 
     37 C          28.6685    0.9492   -5.4690 C.2       5 UNK         0.5014 
     38 O          28.7862    0.2172   -6.4530 O.2       5 UNK        -0.5248 
     39 N          29.1345    2.2065   -5.4213 N.am      6 UNK        -0.4434 
     40 CA         29.8794    2.8905   -6.4791 C.3       6 UNK         0.0363 
     41 CB         30.2533    4.3051   -6.0116 C.3       6 UNK        -0.1936 
     42 C          29.1736    2.9398   -7.8424 C.2       6 UNK         0.5081 
     43 O          29.8579    2.9078   -8.8646 O.2       6 UNK        -0.5248 
     44 N          27.8348    2.9780   -7.8403 N.am      7 UNK        -0.4718 
     45 CA         27.0168    2.9955   -9.0543 C.3       7 UNK         0.0273 
     46 CB         25.6163    3.5272   -8.7078 C.3       7 UNK        -0.1935 
     47 C          26.9264    1.6327   -9.7681 C.2       7 UNK         0.5018 
     48 O          26.4990    1.6066  -10.9231 O.2       7 UNK        -0.5186 
     49 N          27.3060    0.5388   -9.0904 N.am      8 UNK        -0.4240 
     50 CA         27.2250   -0.8270   -9.6155 C.3       8 UNK         0.0235 
     51 CB         26.2371   -1.6377   -8.7633 C.3       8 UNK        -0.2000 
     52 C          28.5941   -1.5174   -9.6581 C.2       8 UNK         0.4941 
     53 O          28.9219   -2.1389  -10.6684 O.2       8 UNK        -0.5273 
     54 N          29.3670   -1.4159   -8.5690 N.am      9 UNK        -0.4262 
     55 CA         30.6605   -2.0840   -8.3974 C.3       9 UNK         0.0264 
     56 CB         30.8887   -2.3294   -6.8946 C.3       9 UNK        -0.1955 
     57 C          31.8463   -1.3001   -8.9863 C.2       9 UNK         0.5031 
     58 O          32.9572   -1.8319   -8.9887 O.2       9 UNK        -0.5390 
     59 N          31.6135   -0.0514   -9.4242 N.am      10 UNK        -0.4204 
     60 CA         32.6186    0.9344   -9.8532 C.3       10 UNK         0.0237 
     61 CB         33.3425    0.4801  -11.1392 C.3       10 UNK        -0.1985 
     62 C          33.5863    1.3209   -8.7136 C.2       10 UNK         0.4970 
     63 O          34.7698    1.5632   -8.9547 O.2       10 UNK        -0.4914 
     64 N          33.0468    1.3652   -7.4885 N.am      11 UNK        -0.4285 
     65 CA         33.7381    1.7010   -6.2345 C.3       11 UNK         0.1007 
     66 C          34.2599    3.1667   -6.1320 C.2       11 UNK         0.5703 
     67 N          33.8191    4.0906   -6.9783 N.am      11 UNK        -0.7361 
     68 O          35.0843    3.4692   -5.2733 O.2       11 UNK        -0.4986 
     69 C69        32.8595    1.3179   -5.0056 C.3       12 UNK        -0.0947 
     70 S70        33.8345    0.6059   -3.6430 S.3       12 UNK        -0.2240 
     71 C71        33.3319   -1.1482   -3.7224 C.3       12 UNK         0.0194 
     72 H72        28.2201   -4.5356   -9.3071 H         1 UNK         0.0906 
     73 H73        27.8366   -6.2147   -9.6773 H         1 UNK         0.0906 
     74 H74        26.5947   -4.9733   -9.8427 H         1 UNK         0.0906 
     75 H75        28.2313   -4.0766   -7.1058 H         1 UNK         0.3140 
     76 H76        27.1551   -5.9846   -5.2043 H         1 UNK         0.1085 
     77 H77        29.4021   -4.6862   -5.0027 H         1 UNK         0.0836 
     78 H78        28.4584   -3.3002   -4.5103 H         1 UNK         0.0836 
     79 H79        30.8088   -5.3519   -2.9774 H         1 UNK         0.0731 
     80 H80        30.2675   -5.1768   -1.3266 H         1 UNK         0.0731 
     81 H81        32.2328   -3.5766   -3.5864 H         1 UNK         0.1312 
     82 H82        31.5476    0.4320   -2.2087 H         1 UNK         0.1406 
     83 H83        28.8913   -2.7140   -1.0458 H         1 UNK         0.1631 
     84 H84        29.8711    0.8755   -0.5606 H         1 UNK         0.0717 
     85 H85        29.1608   -0.4797    0.2727 H         1 UNK         0.0717 
     86 H86        27.6301    2.1946   -2.9577 H         1 UNK         0.0934 
     87 H87        29.2341    1.5080   -2.8537 H         1 UNK         0.0934 
     88 H88        28.2787   -0.5838   -4.0745 H         1 UNK         0.0739 
     89 H89        26.0601   -0.5933   -4.2503 H         1 UNK         0.3093 
     90 H90        23.6004    1.7900   -5.1707 H         1 UNK         0.0818 
     91 H91        24.3209    0.7658   -7.3825 H         1 UNK         0.0819 
     92 H92        24.3693   -0.8086   -6.6026 H         1 UNK         0.0819 
     93 H93        22.8444    0.0624   -6.7464 H         1 UNK         0.0819 
     94 H94        23.4407   -0.9576   -4.4015 H         1 UNK         0.3041 
     95 H95        23.8090   -0.7744   -1.0231 H         1 UNK         0.0784 
     96 H96        21.6589    0.4897   -0.8726 H         1 UNK         0.0793 
     97 H97        20.9641   -0.5039   -2.1452 H         1 UNK         0.0793 
     98 H98        21.3977   -1.2223   -0.5926 H         1 UNK         0.0793 
     99 H99        22.2414   -2.5735   -2.6074 H         1 UNK         0.3024 
    100 H100       23.7949   -4.8788   -2.6167 H         1 UNK         0.1171 
    101 H101       22.8040   -5.1917   -4.9429 H         1 UNK         0.0786 
    102 H102       21.9117   -4.0554   -3.9577 H         1 UNK         0.0786 
    103 H103       22.9849   -3.4638   -5.2201 H         1 UNK         0.0786 
    104 H104       25.6863   -5.5034   -3.5577 H         1 UNK         0.2977 
    105 H105       28.9238    2.7579   -4.6026 H         1 UNK         0.3127 
    106 H106       30.7971    2.3307   -6.6269 H         1 UNK         0.0770 
    107 H107       29.3684    4.9055   -5.7966 H         1 UNK         0.0814 
    108 H108       30.8248    4.8323   -6.7769 H         1 UNK         0.0814 
    109 H109       30.8702    4.2795   -5.1132 H         1 UNK         0.0814 
    110 H110       27.3404    2.9502   -6.9530 H         1 UNK         0.2983 
    111 H111       27.4722    3.6914   -9.7628 H         1 UNK         0.0947 
    112 H112       24.9814    3.5702   -9.5939 H         1 UNK         0.0806 
    113 H113       25.6670    4.5363   -8.2987 H         1 UNK         0.0806 
    114 H114       25.1128    2.8969   -7.9757 H         1 UNK         0.0806 
    115 H115       27.6749    0.6522   -8.1528 H         1 UNK         0.3000 
    116 H116       26.8470   -0.8220  -10.6401 H         1 UNK         0.0850 
    117 H117       26.1795   -2.6721   -9.1000 H         1 UNK         0.0810 
    118 H118       25.2313   -1.2254   -8.8354 H         1 UNK         0.0810 
    119 H119       26.5235   -1.6489   -7.7109 H         1 UNK         0.0810 
    120 H120       29.0462   -0.8631   -7.7725 H         1 UNK         0.3040 
    121 H121       30.6297   -3.0534   -8.8995 H         1 UNK         0.0766 
    122 H122       30.9927   -1.3958   -6.3412 H         1 UNK         0.0812 
    123 H123       31.7963   -2.9100   -6.7237 H         1 UNK         0.0812 
    124 H124       30.0636   -2.8838   -6.4532 H         1 UNK         0.0812 
    125 H125       30.6600    0.2831   -9.3924 H         1 UNK         0.3205 
    126 H126       32.0669    1.8433  -10.0975 H         1 UNK         0.0754 
    127 H127       33.9739    1.2772  -11.5334 H         1 UNK         0.0769 
    128 H128       32.6313    0.2149  -11.9215 H         1 UNK         0.0769 
    129 H129       33.9848   -0.3831  -10.9629 H         1 UNK         0.0769 
    130 H130       32.0703    1.1347   -7.4053 H         1 UNK         0.2981 
    131 H131       34.6302    1.0716   -6.2284 H         1 UNK         0.0541 
    132 H132       33.1631    3.8541   -7.7037 H         1 UNK         0.3459 
    133 H133       34.1713    5.0316   -6.9032 H         1 UNK         0.3459 
    134 H134       32.0941    0.5913   -5.2823 H         1 UNK         0.0612 
    135 H135       32.3064    2.1769   -4.6214 H         1 UNK         0.0612 
    136 H136       33.2654   -1.4536   -4.7678 H         1 UNK         0.0624 
    137 H137       34.1414   -1.7355   -3.2868 H         1 UNK         0.0624 
@<TRIPOS>BOND
     1    1    2 1    
     2    1   72 1    
     3    1   73 1    
     4    1   74 1    
     5    2    3 2    
     6    2    4 am   BACKBONE|DICT|INTERRES
     7    4    5 1    
     8    4   75 1    
     9    5    6 1    
    10    5   35 1    
    11    5   76 1    
    12    6    7 1    
    13    6   77 1    
    14    6   78 1    
    15    7    8 1    
    16    8    9 1    
    17    8   79 1    
    18    8   80 1    
    19    9   10 ar   
    20    9   14 ar   
    21   10   11 ar   
    22   10   81 1    
    23   11   12 ar   
    24   11   71 1    
    25   12   13 ar   
    26   12   82 1    
    27   13   14 ar   
    28   13   15 1    
    29   14   83 1    
    30   15   16 1    
    31   15   84 1    
    32   15   85 1    
    33   16   17 1    
    34   17   18 1    
    35   17   86 1    
    36   17   87 1    
    37   18   19 1    
    38   18   37 1    
    39   18   88 1    
    40   19   20 am   BACKBONE|DICT|INTERRES
    41   19   89 1    
    42   20   21 2    
    43   20   22 1    
    44   22   23 1    
    45   22   24 1    
    46   22   90 1    
    47   23   91 1    
    48   23   92 1    
    49   23   93 1    
    50   24   25 am   BACKBONE|DICT|INTERRES
    51   24   94 1    
    52   25   26 2    
    53   25   27 1    
    54   27   28 1    
    55   27   29 1    
    56   27   95 1    
    57   28   96 1    
    58   28   97 1    
    59   28   98 1    
    60   29   30 am   BACKBONE|DICT|INTERRES
    61   29   99 1    
    62   30   31 2    
    63   30   32 1    
    64   32   33 1    
    65   32   34 1    
    66   32  100 1    
    67   33  101 1    
    68   33  102 1    
    69   33  103 1    
    70   34   35 am   BACKBONE|DICT|INTERRES
    71   34  104 1    
    72   35   36 2    
    73   37   38 2    
    74   37   39 am   BACKBONE|DICT|INTERRES
    75   39   40 1    
    76   39  105 1    
    77   40   41 1    
    78   40   42 1    
    79   40  106 1    
    80   41  107 1    
    81   41  108 1    
    82   41  109 1    
    83   42   43 2    
    84   42   44 am   BACKBONE|DICT|INTERRES
    85   44   45 1    
    86   44  110 1    
    87   45   46 1    
    88   45   47 1    
    89   45  111 1    
    90   46  112 1    
    91   46  113 1    
    92   46  114 1    
    93   47   48 2    
    94   47   49 am   BACKBONE|DICT|INTERRES
    95   49   50 1    
    96   49  115 1    
    97   50   51 1    
    98   50   52 1    
    99   50  116 1    
   100   51  117 1    
   101   51  118 1    
   102   51  119 1    
   103   52   53 2    
   104   52   54 am   BACKBONE|DICT|INTERRES
   105   54   55 1    
   106   54  120 1    
   107   55   56 1    
   108   55   57 1    
   109   55  121 1    
   110   56  122 1    
   111   56  123 1    
   112   56  124 1    
   113   57   58 2    
   114   57   59 am   BACKBONE|DICT|INTERRES
   115   59   60 1    
   116   59  125 1    
   117   60   61 1    
   118   60   62 1    
   119   60  126 1    
   120   61  127 1    
   121   61  128 1    
   122   61  129 1    
   123   62   63 2    
   124   62   64 am   BACKBONE|DICT|INTERRES
   125   64   65 1    
   126   64  130 1    
   127   65   66 1    
   128   65   69 1    
   129   65  131 1    
   130   66   67 am   BACKBONE|DICT|INTERRES
   131   66   68 2    
   132   67  132 1    
   133   67  133 1    
   134   69   70 1    
   135   69  134 1    
   136   69  135 1    
   137   70   71 1    
   138   71  136 1    
   139   71  137 1    
@<TRIPOS>SUBSTRUCTURE
     1 UNK         1 GROUP             0       ****    0 ROOT    
