@<TRIPOS>MOLECULE
3R137
137   139    1
SMALL
USER_CHARGES


@<TRIPOS>ATOM
      1 CA         25.0606   -5.5557    2.1248 C.3       0 UNK        -0.2020 
      2 C          25.4561   -4.1293    1.7734 C.2       0 UNK         0.4855 
      3 O          24.9049   -3.1853    2.3398 O.2       0 UNK        -0.5197 
      4 N          26.4097   -3.9663    0.8460 N.am      1 UNK        -0.4892 
      5 CA         26.8950   -2.6665    0.3593 C.3       1 UNK         0.0835 
      6 C6         28.2196   -2.8251   -0.4301 C.3       12 UNK        -0.0855 
      7 S7         29.3682   -1.4263   -0.1988 S.3       12 UNK        -0.2931 
      8 C8         30.9513   -2.1630   -0.7278 C.3       12 UNK         0.0378 
      9 C9         31.0494   -2.3095   -2.2422 C.ar      12 UNK        -0.0802 
     10 C10        31.8144   -1.4124   -2.9951 C.ar      12 UNK        -0.0944 
     11 C11        31.9342   -1.5689   -4.3804 C.ar      12 UNK        -0.0787 
     12 C12        31.2491   -2.6084   -5.0201 C.ar      12 UNK        -0.0862 
     13 C13        30.4803   -3.5099   -4.2773 C.ar      12 UNK        -0.0733 
     14 C14        30.4051   -3.3668   -2.8903 C.ar      12 UNK        -0.0832 
     15 C15        29.7498   -4.6630   -4.9491 C.3       12 UNK         0.0240 
     16 S16        28.0113   -4.2473   -5.3051 S.3       12 UNK        -0.2522 
     17 C17        28.1374   -3.5720   -6.9969 C.3       12 UNK        -0.0967 
     18 CA         27.4558   -2.2000   -7.2128 C.3       5 UNK         0.0660 
     19 N          26.0191   -2.2003   -6.9343 N.am      5 UNK        -0.4015 
     20 C          25.0751   -2.1983   -7.8865 C.2       4 UNK         0.4946 
     21 O          25.3013   -2.4051   -9.0799 O.2       4 UNK        -0.5353 
     22 CA         23.6301   -1.8722   -7.4601 C.3       4 UNK         0.0277 
     23 CB         22.8291   -3.1681   -7.2532 C.3       4 UNK        -0.1981 
     24 N          23.5219   -1.0457   -6.2541 N.am      4 UNK        -0.4209 
     25 C          24.1179    0.1376   -6.0396 C.2       3 UNK         0.4942 
     26 O          24.7923    0.7330   -6.8790 O.2       3 UNK        -0.5208 
     27 CA         24.0041    0.7280   -4.6226 C.3       3 UNK         0.0250 
     28 CB         22.9219    1.8186   -4.5836 C.3       3 UNK        -0.1990 
     29 N          23.7373   -0.2546   -3.5624 N.am      3 UNK        -0.4232 
     30 C          24.4766   -1.3377   -3.2793 C.2       2 UNK         0.4993 
     31 O          25.4627   -1.6934   -3.9332 O.2       2 UNK        -0.5286 
     32 CA         23.9748   -2.2104   -2.1194 C.3       2 UNK         0.0209 
     33 CB         23.1912   -3.4150   -2.6659 C.3       2 UNK        -0.1931 
     34 N          25.0675   -2.6950   -1.2772 N.am      2 UNK        -0.4546 
     35 C          25.8237   -1.9294   -0.4760 C.2       1 UNK         0.5154 
     36 O          25.6753   -0.7125   -0.3522 O.2       1 UNK        -0.5181 
     37 C          28.1705   -1.0400   -6.4972 C.2       5 UNK         0.5014 
     38 O          29.0711   -0.4559   -7.0980 O.2       5 UNK        -0.5248 
     39 N          27.7513   -0.6845   -5.2716 N.am      6 UNK        -0.4434 
     40 CA         28.4023    0.3306   -4.4342 C.3       6 UNK         0.0363 
     41 CB         27.8302    0.2584   -3.0124 C.3       6 UNK        -0.1936 
     42 C          28.3223    1.7740   -4.9654 C.2       6 UNK         0.5081 
     43 O          29.0990    2.6158   -4.5133 O.2       6 UNK        -0.5248 
     44 N          27.3949    2.0491   -5.8912 N.am      7 UNK        -0.4718 
     45 CA         27.2565    3.3356   -6.5779 C.3       7 UNK         0.0273 
     46 CB         25.8917    3.9519   -6.2196 C.3       7 UNK        -0.1935 
     47 C          27.4315    3.1827   -8.1001 C.2       7 UNK         0.5018 
     48 O          27.0899    4.1103   -8.8366 O.2       7 UNK        -0.5186 
     49 N          27.9454    2.0314   -8.5546 N.am      8 UNK        -0.4240 
     50 CA         28.1951    1.7287   -9.9629 C.3       8 UNK         0.0235 
     51 CB         27.8095    0.2613  -10.2236 C.3       8 UNK        -0.2000 
     52 C          29.6708    1.9691  -10.3156 C.2       8 UNK         0.4941 
     53 O          30.5006    2.2075   -9.4340 O.2       8 UNK        -0.5273 
     54 N          29.9842    1.8363  -11.6126 N.am      9 UNK        -0.4262 
     55 CA         31.3371    1.9327  -12.1777 C.3       9 UNK         0.0264 
     56 CB         31.2453    1.8888  -13.7119 C.3       9 UNK        -0.1955 
     57 C          32.3236    0.8625  -11.6669 C.2       9 UNK         0.5031 
     58 O          33.5325    1.0445  -11.8173 O.2       9 UNK        -0.5390 
     59 N          31.8049   -0.2085  -11.0465 N.am      10 UNK        -0.4204 
     60 CA         32.5523   -1.2788  -10.3782 C.3       10 UNK         0.0237 
     61 CB         31.5540   -2.2789   -9.7687 C.3       10 UNK        -0.1985 
     62 C          33.5309   -0.7859   -9.2952 C.2       10 UNK         0.4970 
     63 O          34.5609   -1.4278   -9.0862 O.2       10 UNK        -0.4914 
     64 N          33.2055    0.3385   -8.6443 N.am      11 UNK        -0.4285 
     65 CA         34.0725    1.0156   -7.6692 C.3       11 UNK         0.1007 
     66 C          35.1685    1.9197   -8.3075 C.2       11 UNK         0.5703 
     67 N          35.2346    2.0808   -9.6247 N.am      11 UNK        -0.7361 
     68 O          35.9928    2.4797   -7.5885 O.2       11 UNK        -0.4986 
     69 C69        33.2493    1.7878   -6.6025 C.3       12 UNK        -0.0947 
     70 S70        31.9364    0.8154   -5.7871 S.3       12 UNK        -0.2240 
     71 C71        32.8368   -0.6406   -5.1792 C.3       12 UNK         0.0194 
     72 H72        25.2292   -5.7412    3.1852 H         1 UNK         0.0906 
     73 H73        24.0029   -5.7137    1.9155 H         1 UNK         0.0906 
     74 H74        25.6316   -6.2906    1.5576 H         1 UNK         0.0906 
     75 H75        26.8313   -4.7830    0.4261 H         1 UNK         0.3140 
     76 H76        27.0869   -2.0542    1.2438 H         1 UNK         0.1085 
     77 H77        28.0289   -2.9689   -1.4953 H         1 UNK         0.0836 
     78 H78        28.7450   -3.7216   -0.0968 H         1 UNK         0.0836 
     79 H79        31.0887   -3.1335   -0.2486 H         1 UNK         0.0731 
     80 H80        31.7627   -1.5322   -0.3615 H         1 UNK         0.0731 
     81 H81        32.3342   -0.6024   -2.5018 H         1 UNK         0.1312 
     82 H82        31.3272   -2.7211   -6.0927 H         1 UNK         0.1406 
     83 H83        29.8376   -4.0852   -2.3168 H         1 UNK         0.1631 
     84 H84        29.7661   -5.5338   -4.2920 H         1 UNK         0.0717 
     85 H85        30.2655   -4.9723   -5.8593 H         1 UNK         0.0717 
     86 H86        29.1846   -3.5081   -7.2974 H         1 UNK         0.0934 
     87 H87        27.6901   -4.3019   -7.6734 H         1 UNK         0.0934 
     88 H88        27.5918   -1.9765   -8.2720 H         1 UNK         0.0739 
     89 H89        25.7409   -2.0623   -5.9692 H         1 UNK         0.3093 
     90 H90        23.1735   -1.3095   -8.2769 H         1 UNK         0.0818 
     91 H91        22.8688   -3.7978   -8.1433 H         1 UNK         0.0819 
     92 H92        23.2201   -3.7556   -6.4212 H         1 UNK         0.0819 
     93 H93        21.7777   -2.9597   -7.0545 H         1 UNK         0.0819 
     94 H94        22.9931   -1.4406   -5.4910 H         1 UNK         0.3041 
     95 H95        24.9634    1.1962   -4.3963 H         1 UNK         0.0784 
     96 H96        23.0962    2.5734   -5.3516 H         1 UNK         0.0793 
     97 H97        21.9266    1.4064   -4.7542 H         1 UNK         0.0793 
     98 H98        22.9129    2.3356   -3.6238 H         1 UNK         0.0793 
     99 H99        22.9333   -0.0616   -2.9820 H         1 UNK         0.3024 
    100 H100       23.3094   -1.6164   -1.4885 H         1 UNK         0.1171 
    101 H101       22.7957   -4.0314   -1.8582 H         1 UNK         0.0786 
    102 H102       22.3414   -3.0908   -3.2682 H         1 UNK         0.0786 
    103 H103       23.8152   -4.0490   -3.2977 H         1 UNK         0.0786 
    104 H104       25.2704   -3.6823   -1.3226 H         1 UNK         0.2977 
    105 H105       26.9982   -1.2002   -4.8214 H         1 UNK         0.3127 
    106 H106       29.4587    0.0643   -4.3773 H         1 UNK         0.0770 
    107 H107       26.8001    0.6101   -2.9665 H         1 UNK         0.0814 
    108 H108       28.4144    0.8719   -2.3257 H         1 UNK         0.0814 
    109 H109       27.8520   -0.7620   -2.6334 H         1 UNK         0.0814 
    110 H110       26.7720    1.3137   -6.2066 H         1 UNK         0.2983 
    111 H111       28.0353    4.0287   -6.2535 H         1 UNK         0.0947 
    112 H112       25.0673    3.3702   -6.6315 H         1 UNK         0.0806 
    113 H113       25.8035    4.9639   -6.6165 H         1 UNK         0.0806 
    114 H114       25.7538    4.0154   -5.1401 H         1 UNK         0.0806 
    115 H115       28.3067    1.3585   -7.8865 H         1 UNK         0.3000 
    116 H116       27.5790    2.3685  -10.5985 H         1 UNK         0.0850 
    117 H117       27.8006    0.0362  -11.2905 H         1 UNK         0.0810 
    118 H118       26.8121    0.0376   -9.8431 H         1 UNK         0.0810 
    119 H119       28.5105   -0.4281   -9.7532 H         1 UNK         0.0810 
    120 H120       29.2416    1.6403  -12.2692 H         1 UNK         0.3040 
    121 H121       31.7448    2.9032  -11.8869 H         1 UNK         0.0766 
    122 H122       30.6288    2.7011  -14.0974 H         1 UNK         0.0812 
    123 H123       30.8228    0.9472  -14.0649 H         1 UNK         0.0812 
    124 H124       32.2322    1.9927  -14.1656 H         1 UNK         0.0812 
    125 H125       30.7998   -0.2588  -10.9809 H         1 UNK         0.3205 
    126 H126       33.1398   -1.7926  -11.1417 H         1 UNK         0.0754 
    127 H127       32.0758   -3.1058   -9.2846 H         1 UNK         0.0769 
    128 H128       30.9053   -2.7106  -10.5312 H         1 UNK         0.0769 
    129 H129       30.9211   -1.8080   -9.0143 H         1 UNK         0.0769 
    130 H130       32.3373    0.8088   -8.8666 H         1 UNK         0.2981 
    131 H131       34.6392    0.2492   -7.1395 H         1 UNK         0.0541 
    132 H132       34.5816    1.6213  -10.2508 H         1 UNK         0.3459 
    133 H133       35.9592    2.6667  -10.0073 H         1 UNK         0.3459 
    134 H134       33.9059    2.1752   -5.8215 H         1 UNK         0.0612 
    135 H135       32.7718    2.6574   -7.0579 H         1 UNK         0.0612 
    136 H136       33.2561   -1.1897   -6.0227 H         1 UNK         0.0624 
    137 H137       33.6795   -0.3151   -4.5675 H         1 UNK         0.0624 
@<TRIPOS>BOND
     1    1    2 1    
     2    1   72 1    
     3    1   73 1    
     4    1   74 1    
     5    2    3 2    
     6    2    4 am   BACKBONE|DICT|INTERRES
     7    4    5 1    
     8    4   75 1    
     9    5    6 1    
    10    5   35 1    
    11    5   76 1    
    12    6    7 1    
    13    6   77 1    
    14    6   78 1    
    15    7    8 1    
    16    8    9 1    
    17    8   79 1    
    18    8   80 1    
    19    9   10 ar   
    20    9   14 ar   
    21   10   11 ar   
    22   10   81 1    
    23   11   12 ar   
    24   11   71 1    
    25   12   13 ar   
    26   12   82 1    
    27   13   14 ar   
    28   13   15 1    
    29   14   83 1    
    30   15   16 1    
    31   15   84 1    
    32   15   85 1    
    33   16   17 1    
    34   17   18 1    
    35   17   86 1    
    36   17   87 1    
    37   18   19 1    
    38   18   37 1    
    39   18   88 1    
    40   19   20 am   BACKBONE|DICT|INTERRES
    41   19   89 1    
    42   20   21 2    
    43   20   22 1    
    44   22   23 1    
    45   22   24 1    
    46   22   90 1    
    47   23   91 1    
    48   23   92 1    
    49   23   93 1    
    50   24   25 am   BACKBONE|DICT|INTERRES
    51   24   94 1    
    52   25   26 2    
    53   25   27 1    
    54   27   28 1    
    55   27   29 1    
    56   27   95 1    
    57   28   96 1    
    58   28   97 1    
    59   28   98 1    
    60   29   30 am   BACKBONE|DICT|INTERRES
    61   29   99 1    
    62   30   31 2    
    63   30   32 1    
    64   32   33 1    
    65   32   34 1    
    66   32  100 1    
    67   33  101 1    
    68   33  102 1    
    69   33  103 1    
    70   34   35 am   BACKBONE|DICT|INTERRES
    71   34  104 1    
    72   35   36 2    
    73   37   38 2    
    74   37   39 am   BACKBONE|DICT|INTERRES
    75   39   40 1    
    76   39  105 1    
    77   40   41 1    
    78   40   42 1    
    79   40  106 1    
    80   41  107 1    
    81   41  108 1    
    82   41  109 1    
    83   42   43 2    
    84   42   44 am   BACKBONE|DICT|INTERRES
    85   44   45 1    
    86   44  110 1    
    87   45   46 1    
    88   45   47 1    
    89   45  111 1    
    90   46  112 1    
    91   46  113 1    
    92   46  114 1    
    93   47   48 2    
    94   47   49 am   BACKBONE|DICT|INTERRES
    95   49   50 1    
    96   49  115 1    
    97   50   51 1    
    98   50   52 1    
    99   50  116 1    
   100   51  117 1    
   101   51  118 1    
   102   51  119 1    
   103   52   53 2    
   104   52   54 am   BACKBONE|DICT|INTERRES
   105   54   55 1    
   106   54  120 1    
   107   55   56 1    
   108   55   57 1    
   109   55  121 1    
   110   56  122 1    
   111   56  123 1    
   112   56  124 1    
   113   57   58 2    
   114   57   59 am   BACKBONE|DICT|INTERRES
   115   59   60 1    
   116   59  125 1    
   117   60   61 1    
   118   60   62 1    
   119   60  126 1    
   120   61  127 1    
   121   61  128 1    
   122   61  129 1    
   123   62   63 2    
   124   62   64 am   BACKBONE|DICT|INTERRES
   125   64   65 1    
   126   64  130 1    
   127   65   66 1    
   128   65   69 1    
   129   65  131 1    
   130   66   67 am   BACKBONE|DICT|INTERRES
   131   66   68 2    
   132   67  132 1    
   133   67  133 1    
   134   69   70 1    
   135   69  134 1    
   136   69  135 1    
   137   70   71 1    
   138   71  136 1    
   139   71  137 1    
@<TRIPOS>SUBSTRUCTURE
     1 UNK         1 GROUP             0       ****    0 ROOT    
