@<TRIPOS>MOLECULE
3R137
137   139    1
SMALL
USER_CHARGES


@<TRIPOS>ATOM
      1 CA         24.6422   -7.4765   -4.2396 C.3       0 UNK        -0.2020 
      2 C          25.2455   -6.5592   -3.1861 C.2       0 UNK         0.4855 
      3 O          24.9954   -6.7471   -1.9947 O.2       0 UNK        -0.5197 
      4 N          26.0465   -5.5766   -3.6159 N.am      1 UNK        -0.4892 
      5 CA         26.6718   -4.5650   -2.7552 C.3       1 UNK         0.0835 
      6 C6         27.8093   -3.8035   -3.4841 C.3       12 UNK        -0.0855 
      7 S7         29.0779   -4.9026   -4.2029 S.3       12 UNK        -0.2931 
      8 C8         29.9488   -3.7645   -5.3300 C.3       12 UNK         0.0378 
      9 C9         30.9364   -2.8775   -4.5845 C.ar      12 UNK        -0.0802 
     10 C10        32.2910   -3.2161   -4.5291 C.ar      12 UNK        -0.0944 
     11 C11        33.2003   -2.4028   -3.8449 C.ar      12 UNK        -0.0787 
     12 C12        32.7438   -1.2369   -3.2194 C.ar      12 UNK        -0.0862 
     13 C13        31.3874   -0.8914   -3.2570 C.ar      12 UNK        -0.0733 
     14 C14        30.4946   -1.7199   -3.9419 C.ar      12 UNK        -0.0832 
     15 C15        30.8838    0.3405   -2.5100 C.3       12 UNK         0.0240 
     16 S16        30.0862    1.5729   -3.5952 S.3       12 UNK        -0.2522 
     17 C17        28.3460    1.0178   -3.6514 C.3       12 UNK        -0.0967 
     18 CA         27.8649    0.5890   -5.0629 C.3       5 UNK         0.0660 
     19 N          26.6227   -0.1912   -4.9887 N.am      5 UNK        -0.4015 
     20 C          25.9941   -0.7365   -6.0447 C.2       4 UNK         0.4946 
     21 O          26.4646   -0.7389   -7.1805 O.2       4 UNK        -0.5353 
     22 CA         24.5879   -1.3308   -5.8429 C.3       4 UNK         0.0277 
     23 CB         24.6030   -2.8543   -6.0413 C.3       4 UNK        -0.1981 
     24 N          23.9762   -0.9889   -4.5555 N.am      4 UNK        -0.4209 
     25 C          23.5772    0.2499   -4.2211 C.2       3 UNK         0.4942 
     26 O          23.6587    1.2143   -4.9836 O.2       3 UNK        -0.5208 
     27 CA         23.0550    0.4771   -2.7892 C.3       3 UNK         0.0250 
     28 CB         21.5185    0.4482   -2.7702 C.3       3 UNK        -0.1990 
     29 N          23.5686   -0.4715   -1.7950 N.am      3 UNK        -0.4232 
     30 C          24.8623   -0.6756   -1.5083 C.2       2 UNK         0.4993 
     31 O          25.7840   -0.0717   -2.0597 O.2       2 UNK        -0.5286 
     32 CA         25.2019   -1.7859   -0.4933 C.3       2 UNK         0.0209 
     33 CB         23.9758   -2.3693    0.2472 C.3       2 UNK        -0.1931 
     34 N          25.9775   -2.8632   -1.1255 N.am      2 UNK        -0.4546 
     35 C          25.6273   -3.5615   -2.2173 C.2       1 UNK         0.5154 
     36 O          24.5617   -3.3954   -2.8203 O.2       1 UNK        -0.5181 
     37 C          27.7329    1.7994   -6.0125 C.2       5 UNK         0.5014 
     38 O          28.6434    2.0461   -6.8045 O.2       5 UNK        -0.5248 
     39 N          26.5862    2.4942   -5.9591 N.am      6 UNK        -0.4434 
     40 CA         26.2698    3.6234   -6.8359 C.3       6 UNK         0.0363 
     41 CB         25.0456    4.3704   -6.2834 C.3       6 UNK        -0.1936 
     42 C          26.0312    3.2022   -8.2964 C.2       6 UNK         0.5081 
     43 O          26.3849    3.9540   -9.2042 O.2       6 UNK        -0.5248 
     44 N          25.4457    2.0136   -8.4986 N.am      7 UNK        -0.4718 
     45 CA         25.1796    1.4370   -9.8185 C.3       7 UNK         0.0273 
     46 CB         24.1179    0.3315   -9.6954 C.3       7 UNK        -0.1935 
     47 C          26.4563    0.8977  -10.4825 C.2       7 UNK         0.5018 
     48 O          26.6717    1.1399  -11.6704 O.2       7 UNK        -0.5186 
     49 N          27.2805    0.1859   -9.7022 N.am      8 UNK        -0.4240 
     50 CA         28.5526   -0.3946  -10.1367 C.3       8 UNK         0.0235 
     51 CB         28.9764   -1.4715   -9.1229 C.3       8 UNK        -0.2000 
     52 C          29.6800    0.6390  -10.3048 C.2       8 UNK         0.4941 
     53 O          30.6548    0.3402  -10.9955 O.2       8 UNK        -0.5273 
     54 N          29.5409    1.8063   -9.6551 N.am      9 UNK        -0.4262 
     55 CA         30.5650    2.8389   -9.4505 C.3       9 UNK         0.0264 
     56 CB         31.0189    3.4716  -10.7837 C.3       9 UNK        -0.1955 
     57 C          31.7243    2.2882   -8.5978 C.2       9 UNK         0.5031 
     58 O          32.8927    2.4038   -8.9757 O.2       9 UNK        -0.5390 
     59 N          31.3492    1.6736   -7.4669 N.am      10 UNK        -0.4204 
     60 CA         32.1889    0.9296   -6.5280 C.3       10 UNK         0.0237 
     61 CB         33.1060    1.8901   -5.7345 C.3       10 UNK        -0.1985 
     62 C          32.9159   -0.2441   -7.2108 C.2       10 UNK         0.4970 
     63 O          32.2587   -1.0766   -7.8376 O.2       10 UNK        -0.4914 
     64 N          34.2401   -0.2974   -7.0586 N.am      11 UNK        -0.4285 
     65 CA         35.1257   -1.3650   -7.5386 C.3       11 UNK         0.1007 
     66 C          36.4710   -0.8290   -8.1086 C.2       11 UNK         0.5703 
     67 N          36.6006    0.4627   -8.3930 N.am      11 UNK        -0.7361 
     68 O          37.4086   -1.5941   -8.3226 O.2       11 UNK        -0.4986 
     69 C69        35.2917   -2.4926   -6.4805 C.3       12 UNK        -0.0947 
     70 S70        35.7701   -1.8783   -4.8249 S.3       12 UNK        -0.2240 
     71 C71        34.6621   -2.8197   -3.7281 C.3       12 UNK         0.0194 
     72 H72        24.9512   -7.1995   -5.2474 H         1 UNK         0.0906 
     73 H73        24.9501   -8.5065   -4.0614 H         1 UNK         0.0906 
     74 H74        23.5543   -7.4328   -4.1952 H         1 UNK         0.0906 
     75 H75        26.2278   -5.4778   -4.6039 H         1 UNK         0.3140 
     76 H76        27.1028   -5.0858   -1.8969 H         1 UNK         0.1085 
     77 H77        27.4043   -3.1732   -4.2778 H         1 UNK         0.0836 
     78 H78        28.3109   -3.1341   -2.7837 H         1 UNK         0.0836 
     79 H79        29.2304   -3.1534   -5.8792 H         1 UNK         0.0731 
     80 H80        30.4755   -4.3544   -6.0819 H         1 UNK         0.0731 
     81 H81        32.6347   -4.1230   -5.0073 H         1 UNK         0.1312 
     82 H82        33.4454   -0.6150   -2.6801 H         1 UNK         0.1406 
     83 H83        29.4457   -1.4773   -3.9628 H         1 UNK         0.1631 
     84 H84        31.7157    0.8359   -2.0071 H         1 UNK         0.0717 
     85 H85        30.1986    0.0351   -1.7183 H         1 UNK         0.0717 
     86 H86        28.2282    0.1903   -2.9516 H         1 UNK         0.0934 
     87 H87        27.7155    1.8149   -3.2522 H         1 UNK         0.0934 
     88 H88        28.6154   -0.0677   -5.5062 H         1 UNK         0.0739 
     89 H89        26.1715   -0.2225   -4.0796 H         1 UNK         0.3093 
     90 H90        23.9539   -0.9063   -6.6240 H         1 UNK         0.0818 
     91 H91        24.9362   -3.1106   -7.0480 H         1 UNK         0.0819 
     92 H92        25.2776   -3.3480   -5.3452 H         1 UNK         0.0819 
     93 H93        23.6100   -3.2845   -5.9096 H         1 UNK         0.0819 
     94 H94        23.9211   -1.7331   -3.8659 H         1 UNK         0.3041 
     95 H95        23.3822    1.4734   -2.4847 H         1 UNK         0.0784 
     96 H96        21.1056    1.1647   -3.4822 H         1 UNK         0.0793 
     97 H97        21.1299   -0.5358   -3.0358 H         1 UNK         0.0793 
     98 H98        21.1275    0.7111   -1.7871 H         1 UNK         0.0793 
     99 H99        22.8843   -1.0432   -1.3210 H         1 UNK         0.3024 
    100 H100       25.8502   -1.3209    0.2515 H         1 UNK         0.1171 
    101 H101       23.4183   -1.5892    0.7677 H         1 UNK         0.0786 
    102 H102       23.2878   -2.8826   -0.4257 H         1 UNK         0.0786 
    103 H103       24.2876   -3.0904    1.0029 H         1 UNK         0.0786 
    104 H104       26.8849   -3.0372   -0.7155 H         1 UNK         0.2977 
    105 H105       25.8622    2.2020   -5.3156 H         1 UNK         0.3127 
    106 H106       27.1206    4.3085   -6.8253 H         1 UNK         0.0770 
    107 H107       24.1628    3.7303   -6.2490 H         1 UNK         0.0814 
    108 H108       24.8002    5.2313   -6.9069 H         1 UNK         0.0814 
    109 H109       25.2293    4.7434   -5.2758 H         1 UNK         0.0814 
    110 H110       25.2103    1.4498   -7.6948 H         1 UNK         0.2983 
    111 H111       24.7765    2.2225  -10.4621 H         1 UNK         0.0947 
    112 H112       23.8668   -0.0751  -10.6760 H         1 UNK         0.0806 
    113 H113       23.1952    0.7133   -9.2580 H         1 UNK         0.0806 
    114 H114       24.4633   -0.4995   -9.0797 H         1 UNK         0.0806 
    115 H115       26.9932   -0.0202   -8.7454 H         1 UNK         0.3000 
    116 H116       28.3982   -0.8748  -11.1053 H         1 UNK         0.0850 
    117 H117       29.9031   -1.9577   -9.4312 H         1 UNK         0.0810 
    118 H118       28.2175   -2.2480   -9.0249 H         1 UNK         0.0810 
    119 H119       29.1492   -1.0456   -8.1332 H         1 UNK         0.0810 
    120 H120       28.7100    1.9153   -9.0871 H         1 UNK         0.3040 
    121 H121       30.0920    3.6246   -8.8589 H         1 UNK         0.0766 
    122 H122       31.5660    2.7650  -11.4081 H         1 UNK         0.0812 
    123 H123       31.6807    4.3193  -10.6027 H         1 UNK         0.0812 
    124 H124       30.1684    3.8392  -11.3574 H         1 UNK         0.0812 
    125 H125       30.3528    1.6796   -7.2491 H         1 UNK         0.3205 
    126 H126       31.5037    0.4638   -5.8216 H         1 UNK         0.0754 
    127 H127       33.6450    1.3618   -4.9468 H         1 UNK         0.0769 
    128 H128       32.5198    2.6678   -5.2448 H         1 UNK         0.0769 
    129 H129       33.8371    2.3869   -6.3732 H         1 UNK         0.0769 
    130 H130       34.6943    0.4244   -6.5189 H         1 UNK         0.2981 
    131 H131       34.6539   -1.8206   -8.4109 H         1 UNK         0.0541 
    132 H132       37.4747    0.7954   -8.7687 H         1 UNK         0.3459 
    133 H133       35.8206    1.0943   -8.3009 H         1 UNK         0.3459 
    134 H134       36.0219   -3.2364   -6.8029 H         1 UNK         0.0612 
    135 H135       34.3501   -3.0345   -6.4021 H         1 UNK         0.0612 
    136 H136       34.9920   -2.6762   -2.6982 H         1 UNK         0.0624 
    137 H137       34.7776   -3.8848   -3.9350 H         1 UNK         0.0624 
@<TRIPOS>BOND
     1    1    2 1    
     2    1   72 1    
     3    1   73 1    
     4    1   74 1    
     5    2    3 2    
     6    2    4 am   BACKBONE|DICT|INTERRES
     7    4    5 1    
     8    4   75 1    
     9    5    6 1    
    10    5   35 1    
    11    5   76 1    
    12    6    7 1    
    13    6   77 1    
    14    6   78 1    
    15    7    8 1    
    16    8    9 1    
    17    8   79 1    
    18    8   80 1    
    19    9   10 ar   
    20    9   14 ar   
    21   10   11 ar   
    22   10   81 1    
    23   11   12 ar   
    24   11   71 1    
    25   12   13 ar   
    26   12   82 1    
    27   13   14 ar   
    28   13   15 1    
    29   14   83 1    
    30   15   16 1    
    31   15   84 1    
    32   15   85 1    
    33   16   17 1    
    34   17   18 1    
    35   17   86 1    
    36   17   87 1    
    37   18   19 1    
    38   18   37 1    
    39   18   88 1    
    40   19   20 am   BACKBONE|DICT|INTERRES
    41   19   89 1    
    42   20   21 2    
    43   20   22 1    
    44   22   23 1    
    45   22   24 1    
    46   22   90 1    
    47   23   91 1    
    48   23   92 1    
    49   23   93 1    
    50   24   25 am   BACKBONE|DICT|INTERRES
    51   24   94 1    
    52   25   26 2    
    53   25   27 1    
    54   27   28 1    
    55   27   29 1    
    56   27   95 1    
    57   28   96 1    
    58   28   97 1    
    59   28   98 1    
    60   29   30 am   BACKBONE|DICT|INTERRES
    61   29   99 1    
    62   30   31 2    
    63   30   32 1    
    64   32   33 1    
    65   32   34 1    
    66   32  100 1    
    67   33  101 1    
    68   33  102 1    
    69   33  103 1    
    70   34   35 am   BACKBONE|DICT|INTERRES
    71   34  104 1    
    72   35   36 2    
    73   37   38 2    
    74   37   39 am   BACKBONE|DICT|INTERRES
    75   39   40 1    
    76   39  105 1    
    77   40   41 1    
    78   40   42 1    
    79   40  106 1    
    80   41  107 1    
    81   41  108 1    
    82   41  109 1    
    83   42   43 2    
    84   42   44 am   BACKBONE|DICT|INTERRES
    85   44   45 1    
    86   44  110 1    
    87   45   46 1    
    88   45   47 1    
    89   45  111 1    
    90   46  112 1    
    91   46  113 1    
    92   46  114 1    
    93   47   48 2    
    94   47   49 am   BACKBONE|DICT|INTERRES
    95   49   50 1    
    96   49  115 1    
    97   50   51 1    
    98   50   52 1    
    99   50  116 1    
   100   51  117 1    
   101   51  118 1    
   102   51  119 1    
   103   52   53 2    
   104   52   54 am   BACKBONE|DICT|INTERRES
   105   54   55 1    
   106   54  120 1    
   107   55   56 1    
   108   55   57 1    
   109   55  121 1    
   110   56  122 1    
   111   56  123 1    
   112   56  124 1    
   113   57   58 2    
   114   57   59 am   BACKBONE|DICT|INTERRES
   115   59   60 1    
   116   59  125 1    
   117   60   61 1    
   118   60   62 1    
   119   60  126 1    
   120   61  127 1    
   121   61  128 1    
   122   61  129 1    
   123   62   63 2    
   124   62   64 am   BACKBONE|DICT|INTERRES
   125   64   65 1    
   126   64  130 1    
   127   65   66 1    
   128   65   69 1    
   129   65  131 1    
   130   66   67 am   BACKBONE|DICT|INTERRES
   131   66   68 2    
   132   67  132 1    
   133   67  133 1    
   134   69   70 1    
   135   69  134 1    
   136   69  135 1    
   137   70   71 1    
   138   71  136 1    
   139   71  137 1    
@<TRIPOS>SUBSTRUCTURE
     1 UNK         1 GROUP             0       ****    0 ROOT    
