@<TRIPOS>MOLECULE
3R137
137   139    1
SMALL
USER_CHARGES


@<TRIPOS>ATOM
      1 CA         25.8927   -5.7244   -4.1028 C.3       0 UNK        -0.2020 
      2 C          25.8878   -4.7063   -2.9736 C.2       0 UNK         0.4855 
      3 O          24.8587   -4.5167   -2.3248 O.2       0 UNK        -0.5197 
      4 N          27.0325   -4.0600   -2.7258 N.am      1 UNK        -0.4892 
      5 CA         27.1951   -3.0606   -1.6657 C.3       1 UNK         0.0835 
      6 C6         28.6505   -2.9794   -1.1462 C.3       12 UNK        -0.0855 
      7 S7         29.1872   -4.5676   -0.4183 S.3       12 UNK        -0.2931 
      8 C8         30.9973   -4.5253   -0.6575 C.3       12 UNK         0.0378 
      9 C9         31.4243   -4.3321   -2.1096 C.ar      12 UNK        -0.0802 
     10 C10        32.4445   -3.4249   -2.4146 C.ar      12 UNK        -0.0944 
     11 C11        32.8428   -3.2051   -3.7368 C.ar      12 UNK        -0.0787 
     12 C12        32.2061   -3.9186   -4.7600 C.ar      12 UNK        -0.0862 
     13 C13        31.1642   -4.8047   -4.4741 C.ar      12 UNK        -0.0733 
     14 C14        30.7987   -5.0330   -3.1463 C.ar      12 UNK        -0.0832 
     15 C15        30.3859   -5.4530   -5.6109 C.3       12 UNK         0.0240 
     16 S16        28.7452   -4.6798   -5.8359 S.3       12 UNK        -0.2522 
     17 C17        29.1339   -2.9022   -5.7171 C.3       12 UNK        -0.0967 
     18 CA         28.1971   -1.9900   -6.5388 C.3       5 UNK         0.0660 
     19 N          26.7976   -2.0284   -6.1071 N.am      5 UNK        -0.4015 
     20 C          25.7844   -2.4027   -6.8969 C.2       4 UNK         0.4946 
     21 O          25.9308   -2.9993   -7.9642 O.2       4 UNK        -0.5353 
     22 CA         24.3575   -2.0184   -6.4653 C.3       4 UNK         0.0277 
     23 CB         23.6593   -3.1824   -5.7469 C.3       4 UNK        -0.1981 
     24 N          24.2472   -0.8102   -5.6420 N.am      4 UNK        -0.4209 
     25 C          24.6409    0.4268   -5.9715 C.2       3 UNK         0.4942 
     26 O          25.2929    0.6999   -6.9795 O.2       3 UNK        -0.5208 
     27 CA         24.2661    1.5594   -4.9985 C.3       3 UNK         0.0250 
     28 CB         22.7465    1.8162   -4.9828 C.3       3 UNK        -0.1990 
     29 N          24.8090    1.3768   -3.6477 N.am      3 UNK        -0.4232 
     30 C          24.5400    0.4047   -2.7663 C.2       2 UNK         0.4993 
     31 O          23.6675   -0.4543   -2.9171 O.2       2 UNK        -0.5286 
     32 CA         25.4330    0.3654   -1.5165 C.3       2 UNK         0.0209 
     33 CB         24.6447    0.8121   -0.2747 C.3       2 UNK        -0.1931 
     34 N          25.9943   -0.9679   -1.2824 N.am      2 UNK        -0.4546 
     35 C          26.7137   -1.6847   -2.1590 C.2       1 UNK         0.5154 
     36 O          27.0284   -1.2912   -3.2900 O.2       1 UNK        -0.5181 
     37 C          28.7101   -0.5446   -6.4556 C.2       5 UNK         0.5014 
     38 O          29.3736   -0.0855   -7.3871 O.2       5 UNK        -0.5248 
     39 N          28.4262    0.1407   -5.3363 N.am      6 UNK        -0.4434 
     40 CA         29.0168    1.4353   -4.9876 C.3       6 UNK         0.0363 
     41 CB         28.5357    1.8728   -3.5976 C.3       6 UNK        -0.1936 
     42 C          28.7965    2.5577   -6.0163 C.2       6 UNK         0.5081 
     43 O          29.6960    3.3806   -6.1903 O.2       6 UNK        -0.5248 
     44 N          27.6381    2.5552   -6.6885 N.am      7 UNK        -0.4718 
     45 CA         27.3180    3.4847   -7.7715 C.3       7 UNK         0.0273 
     46 CB         25.9304    4.1075   -7.5411 C.3       7 UNK        -0.1935 
     47 C          27.3766    2.7705   -9.1264 C.2       7 UNK         0.5018 
     48 O          28.0467    3.2624  -10.0330 O.2       7 UNK        -0.5186 
     49 N          26.6972    1.6196   -9.2418 N.am      8 UNK        -0.4240 
     50 CA         26.5141    0.8786  -10.4947 C.3       8 UNK         0.0235 
     51 CB         25.4961   -0.2489  -10.2764 C.3       8 UNK        -0.2000 
     52 C          27.8109    0.3270  -11.1118 C.2       8 UNK         0.4941 
     53 O          27.9205    0.3028  -12.3382 O.2       8 UNK        -0.5273 
     54 N          28.7702   -0.0768  -10.2683 N.am      9 UNK        -0.4262 
     55 CA         30.1213   -0.4789  -10.6740 C.3       9 UNK         0.0264 
     56 CB         30.4527   -1.8450  -10.0435 C.3       9 UNK        -0.1955 
     57 C          31.1661    0.5838  -10.2825 C.2       9 UNK         0.5031 
     58 O          32.3601    0.3405  -10.4625 O.2       9 UNK        -0.5390 
     59 N          30.7079    1.7271   -9.7448 N.am      10 UNK        -0.4204 
     60 CA         31.4820    2.8574   -9.2193 C.3       10 UNK         0.0237 
     61 CB         32.1652    3.6223  -10.3726 C.3       10 UNK        -0.1985 
     62 C          32.4636    2.4704   -8.0929 C.2       10 UNK         0.4970 
     63 O          33.5192    3.0951   -7.9690 O.2       10 UNK        -0.4914 
     64 N          32.1144    1.4456   -7.3011 N.am      11 UNK        -0.4285 
     65 CA         32.9693    0.9003   -6.2347 C.3       11 UNK         0.1007 
     66 C          33.0716    1.7750   -4.9489 C.2       11 UNK         0.5703 
     67 N          32.2863    2.8349   -4.7929 N.am      11 UNK        -0.7361 
     68 O          33.8930    1.4967   -4.0793 O.2       11 UNK        -0.4986 
     69 C69        32.6161   -0.5837   -5.9295 C.3       12 UNK        -0.0947 
     70 S70        34.1095   -1.6155   -5.7320 S.3       12 UNK        -0.2240 
     71 C71        33.9589   -2.1917   -4.0048 C.3       12 UNK         0.0194 
     72 H72        25.0524   -6.4115   -4.0055 H         1 UNK         0.0906 
     73 H73        25.8137   -5.2243   -5.0674 H         1 UNK         0.0906 
     74 H74        26.8092   -6.3140   -4.0926 H         1 UNK         0.0906 
     75 H75        27.8380   -4.2192   -3.3141 H         1 UNK         0.3140 
     76 H76        26.5663   -3.3548   -0.8218 H         1 UNK         0.1085 
     77 H77        29.3232   -2.6837   -1.9529 H         1 UNK         0.0836 
     78 H78        28.7442   -2.2120   -0.3752 H         1 UNK         0.0836 
     79 H79        31.4051   -3.7323   -0.0286 H         1 UNK         0.0731 
     80 H80        31.4222   -5.4600   -0.2897 H         1 UNK         0.0731 
     81 H81        32.9300   -2.8784   -1.6171 H         1 UNK         0.1312 
     82 H82        32.4866   -3.7633   -5.7916 H         1 UNK         0.1406 
     83 H83        29.9959   -5.7230   -2.9246 H         1 UNK         0.1631 
     84 H84        30.2562   -6.5174   -5.4105 H         1 UNK         0.0717 
     85 H85        30.9408   -5.3823   -6.5477 H         1 UNK         0.0717 
     86 H86        29.1336   -2.6219   -4.6617 H         1 UNK         0.0934 
     87 H87        30.1553   -2.7595   -6.0729 H         1 UNK         0.0934 
     88 H88        28.2781   -2.2869   -7.5868 H         1 UNK         0.0739 
     89 H89        26.5903   -1.6136   -5.2052 H         1 UNK         0.3093 
     90 H90        23.8063   -1.8180   -7.3864 H         1 UNK         0.0818 
     91 H91        22.5890   -2.9997   -5.6508 H         1 UNK         0.0819 
     92 H92        23.7785   -4.1179   -6.2954 H         1 UNK         0.0819 
     93 H93        24.0591   -3.3301   -4.7448 H         1 UNK         0.0819 
     94 H94        23.7975   -0.9118   -4.7343 H         1 UNK         0.3041 
     95 H95        24.7376    2.4664   -5.3778 H         1 UNK         0.0784 
     96 H96        22.3795    2.0309   -5.9873 H         1 UNK         0.0793 
     97 H97        22.1839    0.9598   -4.6103 H         1 UNK         0.0793 
     98 H98        22.4983    2.6742   -4.3581 H         1 UNK         0.0793 
     99 H99        25.5278    2.0404   -3.3978 H         1 UNK         0.3024 
    100 H100       26.2733    1.0486   -1.6528 H         1 UNK         0.1171 
    101 H101       24.2326    1.8128   -0.4122 H         1 UNK         0.0786 
    102 H102       25.2798    0.8443    0.6108 H         1 UNK         0.0786 
    103 H103       23.8091    0.1424   -0.0655 H         1 UNK         0.0786 
    104 H104       25.7742   -1.3849   -0.3896 H         1 UNK         0.2977 
    105 H105       27.9101   -0.3270   -4.5942 H         1 UNK         0.3127 
    106 H106       30.0908    1.2635   -4.9234 H         1 UNK         0.0770 
    107 H107       27.4722    2.1011   -3.5966 H         1 UNK         0.0814 
    108 H108       29.0600    2.7729   -3.2733 H         1 UNK         0.0814 
    109 H109       28.7222    1.1034   -2.8480 H         1 UNK         0.0814 
    110 H110       26.9806    1.8011   -6.5284 H         1 UNK         0.2983 
    111 H111       28.0430    4.3015   -7.7992 H         1 UNK         0.0947 
    112 H112       25.7107    4.8530   -8.3064 H         1 UNK         0.0806 
    113 H113       25.8783    4.6112   -6.5758 H         1 UNK         0.0806 
    114 H114       25.1327    3.3656   -7.5775 H         1 UNK         0.0806 
    115 H115       26.1737    1.2786   -8.4366 H         1 UNK         0.3000 
    116 H116       26.0881    1.5768  -11.2186 H         1 UNK         0.0850 
    117 H117       25.2936   -0.7813  -11.2067 H         1 UNK         0.0810 
    118 H118       24.5453    0.1359   -9.9068 H         1 UNK         0.0810 
    119 H119       25.8645   -0.9777   -9.5571 H         1 UNK         0.0810 
    120 H120       28.6127   -0.0253   -9.2665 H         1 UNK         0.3040 
    121 H121       30.1774   -0.5899  -11.7587 H         1 UNK         0.0766 
    122 H122       31.4051   -2.2239  -10.4163 H         1 UNK         0.0812 
    123 H123       29.6933   -2.5888  -10.2847 H         1 UNK         0.0812 
    124 H124       30.5339   -1.7876   -8.9585 H         1 UNK         0.0812 
    125 H125       29.7038    1.8463   -9.7018 H         1 UNK         0.3205 
    126 H126       30.7565    3.5324   -8.7630 H         1 UNK         0.0754 
    127 H127       32.6307    4.5414  -10.0145 H         1 UNK         0.0769 
    128 H128       31.4447    3.9052  -11.1402 H         1 UNK         0.0769 
    129 H129       32.9445    3.0249  -10.8471 H         1 UNK         0.0769 
    130 H130       31.2215    0.9892   -7.4476 H         1 UNK         0.2981 
    131 H131       33.9791    0.9131   -6.6498 H         1 UNK         0.0541 
    132 H132       31.5848    3.0758   -5.4834 H         1 UNK         0.3459 
    133 H133       32.3825    3.3946   -3.9612 H         1 UNK         0.3459 
    134 H134       32.0570   -1.0226   -6.7576 H         1 UNK         0.0612 
    135 H135       31.9634   -0.6753   -5.0592 H         1 UNK         0.0612 
    136 H136       34.9074   -2.6459   -3.7162 H         1 UNK         0.0624 
    137 H137       33.8262   -1.3190   -3.3633 H         1 UNK         0.0624 
@<TRIPOS>BOND
     1    1    2 1    
     2    1   72 1    
     3    1   73 1    
     4    1   74 1    
     5    2    3 2    
     6    2    4 am   BACKBONE|DICT|INTERRES
     7    4    5 1    
     8    4   75 1    
     9    5    6 1    
    10    5   35 1    
    11    5   76 1    
    12    6    7 1    
    13    6   77 1    
    14    6   78 1    
    15    7    8 1    
    16    8    9 1    
    17    8   79 1    
    18    8   80 1    
    19    9   10 ar   
    20    9   14 ar   
    21   10   11 ar   
    22   10   81 1    
    23   11   12 ar   
    24   11   71 1    
    25   12   13 ar   
    26   12   82 1    
    27   13   14 ar   
    28   13   15 1    
    29   14   83 1    
    30   15   16 1    
    31   15   84 1    
    32   15   85 1    
    33   16   17 1    
    34   17   18 1    
    35   17   86 1    
    36   17   87 1    
    37   18   19 1    
    38   18   37 1    
    39   18   88 1    
    40   19   20 am   BACKBONE|DICT|INTERRES
    41   19   89 1    
    42   20   21 2    
    43   20   22 1    
    44   22   23 1    
    45   22   24 1    
    46   22   90 1    
    47   23   91 1    
    48   23   92 1    
    49   23   93 1    
    50   24   25 am   BACKBONE|DICT|INTERRES
    51   24   94 1    
    52   25   26 2    
    53   25   27 1    
    54   27   28 1    
    55   27   29 1    
    56   27   95 1    
    57   28   96 1    
    58   28   97 1    
    59   28   98 1    
    60   29   30 am   BACKBONE|DICT|INTERRES
    61   29   99 1    
    62   30   31 2    
    63   30   32 1    
    64   32   33 1    
    65   32   34 1    
    66   32  100 1    
    67   33  101 1    
    68   33  102 1    
    69   33  103 1    
    70   34   35 am   BACKBONE|DICT|INTERRES
    71   34  104 1    
    72   35   36 2    
    73   37   38 2    
    74   37   39 am   BACKBONE|DICT|INTERRES
    75   39   40 1    
    76   39  105 1    
    77   40   41 1    
    78   40   42 1    
    79   40  106 1    
    80   41  107 1    
    81   41  108 1    
    82   41  109 1    
    83   42   43 2    
    84   42   44 am   BACKBONE|DICT|INTERRES
    85   44   45 1    
    86   44  110 1    
    87   45   46 1    
    88   45   47 1    
    89   45  111 1    
    90   46  112 1    
    91   46  113 1    
    92   46  114 1    
    93   47   48 2    
    94   47   49 am   BACKBONE|DICT|INTERRES
    95   49   50 1    
    96   49  115 1    
    97   50   51 1    
    98   50   52 1    
    99   50  116 1    
   100   51  117 1    
   101   51  118 1    
   102   51  119 1    
   103   52   53 2    
   104   52   54 am   BACKBONE|DICT|INTERRES
   105   54   55 1    
   106   54  120 1    
   107   55   56 1    
   108   55   57 1    
   109   55  121 1    
   110   56  122 1    
   111   56  123 1    
   112   56  124 1    
   113   57   58 2    
   114   57   59 am   BACKBONE|DICT|INTERRES
   115   59   60 1    
   116   59  125 1    
   117   60   61 1    
   118   60   62 1    
   119   60  126 1    
   120   61  127 1    
   121   61  128 1    
   122   61  129 1    
   123   62   63 2    
   124   62   64 am   BACKBONE|DICT|INTERRES
   125   64   65 1    
   126   64  130 1    
   127   65   66 1    
   128   65   69 1    
   129   65  131 1    
   130   66   67 am   BACKBONE|DICT|INTERRES
   131   66   68 2    
   132   67  132 1    
   133   67  133 1    
   134   69   70 1    
   135   69  134 1    
   136   69  135 1    
   137   70   71 1    
   138   71  136 1    
   139   71  137 1    
@<TRIPOS>SUBSTRUCTURE
     1 UNK         1 GROUP             0       ****    0 ROOT    
