@<TRIPOS>MOLECULE
3R137
137   139    1
SMALL
USER_CHARGES


@<TRIPOS>ATOM
      1 CA         26.8984   -6.8079    0.3372 C.3       0 UNK        -0.2020 
      2 C          26.8625   -5.3210    0.6568 C.2       0 UNK         0.4855 
      3 O          26.1432   -4.9068    1.5661 O.2       0 UNK        -0.5197 
      4 N          27.6344   -4.5158   -0.0845 N.am      1 UNK        -0.4892 
      5 CA         27.7188   -3.0568    0.0737 C.3       1 UNK         0.0835 
      6 C6         28.9844   -2.4780   -0.6027 C.3       12 UNK        -0.0855 
      7 S7         30.5312   -3.0395    0.1970 S.3       12 UNK        -0.2931 
      8 C8         31.0802   -4.4381   -0.8411 C.3       12 UNK         0.0378 
      9 C9         31.2447   -4.0488   -2.3030 C.ar      12 UNK        -0.0802 
     10 C10        32.2569   -3.1635   -2.6873 C.ar      12 UNK        -0.0944 
     11 C11        32.3749   -2.7561   -4.0194 C.ar      12 UNK        -0.0787 
     12 C12        31.4788   -3.2546   -4.9702 C.ar      12 UNK        -0.0862 
     13 C13        30.4665   -4.1448   -4.5993 C.ar      12 UNK        -0.0733 
     14 C14        30.3635   -4.5499   -3.2666 C.ar      12 UNK        -0.0832 
     15 C15        29.4573   -4.6363   -5.6292 C.3       12 UNK         0.0240 
     16 S16        27.8202   -3.8672   -5.3901 S.3       12 UNK        -0.2522 
     17 C17        28.2110   -2.0975   -5.5992 C.3       12 UNK        -0.0967 
     18 CA         27.4213   -1.4331   -6.7479 C.3       5 UNK         0.0660 
     19 N          25.9734   -1.4417   -6.5199 N.am      5 UNK        -0.4015 
     20 C          25.0632   -1.1235   -7.4536 C.2       4 UNK         0.4946 
     21 O          25.3512   -0.8278   -8.6119 O.2       4 UNK        -0.5353 
     22 CA         23.5865   -1.0755   -7.0231 C.3       4 UNK         0.0277 
     23 CB         22.9445   -2.4660   -7.1498 C.3       4 UNK        -0.1981 
     24 N          23.3974   -0.5720   -5.6621 N.am      4 UNK        -0.4209 
     25 C          23.7863    0.6352   -5.2257 C.2       3 UNK         0.4942 
     26 O          24.2645    1.5024   -5.9562 O.2       3 UNK        -0.5208 
     27 CA         23.6793    0.9012   -3.7127 C.3       3 UNK         0.0250 
     28 CB         22.4088    1.7068   -3.3991 C.3       3 UNK        -0.1990 
     29 N          23.7047   -0.3145   -2.8873 N.am      3 UNK        -0.4232 
     30 C          24.7191   -1.1905   -2.8385 C.2       2 UNK         0.4993 
     31 O          25.7502   -1.0819   -3.5069 O.2       2 UNK        -0.5286 
     32 CA         24.4967   -2.4403   -1.9725 C.3       2 UNK         0.0209 
     33 CB         23.8543   -3.5556   -2.8148 C.3       2 UNK        -0.1931 
     34 N          25.7402   -2.9488   -1.3923 N.am      2 UNK        -0.4546 
     35 C          26.4500   -2.3360   -0.4339 C.2       1 UNK         0.5154 
     36 O          26.1257   -1.2589    0.0698 O.2       1 UNK        -0.5181 
     37 C          27.9414   -0.0022   -6.9687 C.2       5 UNK         0.5014 
     38 O          28.7534    0.2181   -7.8718 O.2       5 UNK        -0.5248 
     39 N          27.4577    0.9405   -6.1458 N.am      6 UNK        -0.4434 
     40 CA         27.7878    2.3639   -6.2256 C.3       6 UNK         0.0363 
     41 CB         27.2443    3.1016   -4.9919 C.3       6 UNK        -0.1936 
     42 C          27.2852    3.0097   -7.5259 C.2       6 UNK         0.5081 
     43 O          28.0066    3.8076   -8.1235 O.2       6 UNK        -0.5248 
     44 N          26.0759    2.6243   -7.9549 N.am      7 UNK        -0.4718 
     45 CA         25.4894    3.0112   -9.2378 C.3       7 UNK         0.0273 
     46 CB         24.0082    2.6015   -9.2671 C.3       7 UNK        -0.1935 
     47 C          26.2436    2.4171  -10.4406 C.2       7 UNK         0.5018 
     48 O          26.4223    3.1166  -11.4385 O.2       7 UNK        -0.5186 
     49 N          26.6630    1.1476  -10.3306 N.am      8 UNK        -0.4240 
     50 CA         27.3880    0.4209  -11.3731 C.3       8 UNK         0.0235 
     51 CB         27.4119   -1.0835  -11.0548 C.3       8 UNK        -0.2000 
     52 C          28.8118    0.9461  -11.6092 C.2       8 UNK         0.4941 
     53 O          29.1573    1.2193  -12.7604 O.2       8 UNK        -0.5273 
     54 N          29.6185    1.0530  -10.5425 N.am      9 UNK        -0.4262 
     55 CA         31.0385    1.4141  -10.6530 C.3       9 UNK         0.0264 
     56 CB         31.8530    0.2110  -11.1737 C.3       9 UNK        -0.1955 
     57 C          31.6784    1.9461   -9.3633 C.2       9 UNK         0.5031 
     58 O          32.6918    2.6403   -9.4640 O.2       9 UNK        -0.5390 
     59 N          31.1541    1.5762   -8.1834 N.am      10 UNK        -0.4204 
     60 CA         31.6910    1.8984   -6.8488 C.3       10 UNK         0.0237 
     61 CB         31.5720    3.4143   -6.5702 C.3       10 UNK        -0.1985 
     62 C          33.1306    1.3885   -6.6048 C.2       10 UNK         0.4970 
     63 O          33.8286    1.9404   -5.7528 O.2       10 UNK        -0.4914 
     64 N          33.5538    0.3660   -7.3640 N.am      11 UNK        -0.4285 
     65 CA         34.9390   -0.1308   -7.4622 C.3       11 UNK         0.1007 
     66 C          35.9512    0.9096   -8.0406 C.2       11 UNK         0.5703 
     67 N          35.5098    1.9529   -8.7361 N.am      11 UNK        -0.7361 
     68 O          37.1615    0.7553   -7.8921 O.2       11 UNK        -0.4986 
     69 C69        35.4424   -0.8217   -6.1592 C.3       12 UNK        -0.0947 
     70 S70        34.4972   -2.3293   -5.7621 S.3       12 UNK        -0.2240 
     71 C71        33.4255   -1.7297   -4.4201 C.3       12 UNK         0.0194 
     72 H72        27.2211   -7.3714    1.2123 H         1 UNK         0.0906 
     73 H73        25.9044   -7.1551    0.0563 H         1 UNK         0.0906 
     74 H74        27.5807   -7.0347   -0.4818 H         1 UNK         0.0906 
     75 H75        28.2123   -4.9119   -0.8097 H         1 UNK         0.3140 
     76 H76        27.7837   -2.8417    1.1431 H         1 UNK         0.1085 
     77 H77        28.9921   -2.7009   -1.6701 H         1 UNK         0.0836 
     78 H78        28.9803   -1.3881   -0.5346 H         1 UNK         0.0836 
     79 H79        32.0356   -4.8023   -0.4606 H         1 UNK         0.0731 
     80 H80        30.3788   -5.2660   -0.7322 H         1 UNK         0.0731 
     81 H81        32.9302   -2.7680   -1.9389 H         1 UNK         0.1312 
     82 H82        31.5589   -2.9284   -5.9983 H         1 UNK         0.1406 
     83 H83        29.5729   -5.2297   -2.9804 H         1 UNK         0.1631 
     84 H84        29.3561   -5.7196   -5.5509 H         1 UNK         0.0717 
     85 H85        29.8047   -4.4329   -6.6435 H         1 UNK         0.0717 
     86 H86        28.0269   -1.5947   -4.6483 H         1 UNK         0.0934 
     87 H87        29.2778   -1.9832   -5.7873 H         1 UNK         0.0934 
     88 H88        27.6176   -1.9944   -7.6641 H         1 UNK         0.0739 
     89 H89        25.6755   -1.6249   -5.5687 H         1 UNK         0.3093 
     90 H90        23.0684   -0.3940   -7.7009 H         1 UNK         0.0818 
     91 H91        21.8764   -2.4321   -6.9343 H         1 UNK         0.0819 
     92 H92        23.0558   -2.8546   -8.1633 H         1 UNK         0.0819 
     93 H93        23.4026   -3.1879   -6.4723 H         1 UNK         0.0819 
     94 H94        22.9989   -1.2115   -4.9913 H         1 UNK         0.3041 
     95 H95        24.5451    1.5048   -3.4323 H         1 UNK         0.0784 
     96 H96        22.3783    2.6290   -3.9817 H         1 UNK         0.0793 
     97 H97        21.5042    1.1439   -3.6330 H         1 UNK         0.0793 
     98 H98        22.3672    1.9904   -2.3472 H         1 UNK         0.0793 
     99 H99        22.8855   -0.4867   -2.3214 H         1 UNK         0.3024 
    100 H100       23.8241   -2.1833   -1.1507 H         1 UNK         0.1171 
    101 H101       22.8987   -3.2352   -3.2320 H         1 UNK         0.0786 
    102 H102       24.4931   -3.8494   -3.6493 H         1 UNK         0.0786 
    103 H103       23.6589   -4.4440   -2.2138 H         1 UNK         0.0786 
    104 H104       26.0933   -3.8185   -1.7620 H         1 UNK         0.2977 
    105 H105       26.7806    0.6687   -5.4466 H         1 UNK         0.3127 
    106 H106       28.8732    2.4456   -6.2113 H         1 UNK         0.0770 
    107 H107       26.1559    3.0699   -4.9434 H         1 UNK         0.0814 
    108 H108       27.5364    4.1524   -5.0107 H         1 UNK         0.0814 
    109 H109       27.6351    2.6742   -4.0684 H         1 UNK         0.0814 
    110 H110       25.5166    2.0246   -7.3536 H         1 UNK         0.2983 
    111 H111       25.5448    4.0992   -9.3168 H         1 UNK         0.0947 
    112 H112       23.5351    2.9141  -10.1989 H         1 UNK         0.0806 
    113 H113       23.4531    3.0622   -8.4496 H         1 UNK         0.0806 
    114 H114       23.8866    1.5210   -9.1852 H         1 UNK         0.0806 
    115 H115       26.4020    0.6165   -9.5051 H         1 UNK         0.3000 
    116 H116       26.8354    0.5502  -12.3063 H         1 UNK         0.0850 
    117 H117       27.9650   -1.6364  -11.8153 H         1 UNK         0.0810 
    118 H118       26.4036   -1.4968  -11.0266 H         1 UNK         0.0810 
    119 H119       27.8837   -1.2883  -10.0937 H         1 UNK         0.0810 
    120 H120       29.2485    0.8241   -9.6240 H         1 UNK         0.3040 
    121 H121       31.1253    2.2259  -11.3787 H         1 UNK         0.0766 
    122 H122       32.9171    0.4467  -11.2270 H         1 UNK         0.0812 
    123 H123       31.5437   -0.0794  -12.1776 H         1 UNK         0.0812 
    124 H124       31.7419   -0.6593  -10.5260 H         1 UNK         0.0812 
    125 H125       30.3176    0.9941   -8.1708 H         1 UNK         0.3205 
    126 H126       31.0584    1.3723   -6.1326 H         1 UNK         0.0754 
    127 H127       31.7279    3.6310   -5.5128 H         1 UNK         0.0769 
    128 H128       30.5922    3.8049   -6.8417 H         1 UNK         0.0769 
    129 H129       32.3147    3.9844   -7.1299 H         1 UNK         0.0769 
    130 H130       32.9067   -0.0265   -8.0303 H         1 UNK         0.2981 
    131 H131       34.9050   -0.9023   -8.2321 H         1 UNK         0.0541 
    132 H132       36.1785    2.6058   -9.1118 H         1 UNK         0.3459 
    133 H133       34.5185    2.1072   -8.8903 H         1 UNK         0.3459 
    134 H134       35.4289   -0.1327   -5.3139 H         1 UNK         0.0612 
    135 H135       36.4812   -1.1371   -6.2688 H         1 UNK         0.0612 
    136 H136       32.9150   -0.8209   -4.7370 H         1 UNK         0.0624 
    137 H137       34.0496   -1.4564   -3.5679 H         1 UNK         0.0624 
@<TRIPOS>BOND
     1    1    2 1    
     2    1   72 1    
     3    1   73 1    
     4    1   74 1    
     5    2    3 2    
     6    2    4 am   BACKBONE|DICT|INTERRES
     7    4    5 1    
     8    4   75 1    
     9    5    6 1    
    10    5   35 1    
    11    5   76 1    
    12    6    7 1    
    13    6   77 1    
    14    6   78 1    
    15    7    8 1    
    16    8    9 1    
    17    8   79 1    
    18    8   80 1    
    19    9   10 ar   
    20    9   14 ar   
    21   10   11 ar   
    22   10   81 1    
    23   11   12 ar   
    24   11   71 1    
    25   12   13 ar   
    26   12   82 1    
    27   13   14 ar   
    28   13   15 1    
    29   14   83 1    
    30   15   16 1    
    31   15   84 1    
    32   15   85 1    
    33   16   17 1    
    34   17   18 1    
    35   17   86 1    
    36   17   87 1    
    37   18   19 1    
    38   18   37 1    
    39   18   88 1    
    40   19   20 am   BACKBONE|DICT|INTERRES
    41   19   89 1    
    42   20   21 2    
    43   20   22 1    
    44   22   23 1    
    45   22   24 1    
    46   22   90 1    
    47   23   91 1    
    48   23   92 1    
    49   23   93 1    
    50   24   25 am   BACKBONE|DICT|INTERRES
    51   24   94 1    
    52   25   26 2    
    53   25   27 1    
    54   27   28 1    
    55   27   29 1    
    56   27   95 1    
    57   28   96 1    
    58   28   97 1    
    59   28   98 1    
    60   29   30 am   BACKBONE|DICT|INTERRES
    61   29   99 1    
    62   30   31 2    
    63   30   32 1    
    64   32   33 1    
    65   32   34 1    
    66   32  100 1    
    67   33  101 1    
    68   33  102 1    
    69   33  103 1    
    70   34   35 am   BACKBONE|DICT|INTERRES
    71   34  104 1    
    72   35   36 2    
    73   37   38 2    
    74   37   39 am   BACKBONE|DICT|INTERRES
    75   39   40 1    
    76   39  105 1    
    77   40   41 1    
    78   40   42 1    
    79   40  106 1    
    80   41  107 1    
    81   41  108 1    
    82   41  109 1    
    83   42   43 2    
    84   42   44 am   BACKBONE|DICT|INTERRES
    85   44   45 1    
    86   44  110 1    
    87   45   46 1    
    88   45   47 1    
    89   45  111 1    
    90   46  112 1    
    91   46  113 1    
    92   46  114 1    
    93   47   48 2    
    94   47   49 am   BACKBONE|DICT|INTERRES
    95   49   50 1    
    96   49  115 1    
    97   50   51 1    
    98   50   52 1    
    99   50  116 1    
   100   51  117 1    
   101   51  118 1    
   102   51  119 1    
   103   52   53 2    
   104   52   54 am   BACKBONE|DICT|INTERRES
   105   54   55 1    
   106   54  120 1    
   107   55   56 1    
   108   55   57 1    
   109   55  121 1    
   110   56  122 1    
   111   56  123 1    
   112   56  124 1    
   113   57   58 2    
   114   57   59 am   BACKBONE|DICT|INTERRES
   115   59   60 1    
   116   59  125 1    
   117   60   61 1    
   118   60   62 1    
   119   60  126 1    
   120   61  127 1    
   121   61  128 1    
   122   61  129 1    
   123   62   63 2    
   124   62   64 am   BACKBONE|DICT|INTERRES
   125   64   65 1    
   126   64  130 1    
   127   65   66 1    
   128   65   69 1    
   129   65  131 1    
   130   66   67 am   BACKBONE|DICT|INTERRES
   131   66   68 2    
   132   67  132 1    
   133   67  133 1    
   134   69   70 1    
   135   69  134 1    
   136   69  135 1    
   137   70   71 1    
   138   71  136 1    
   139   71  137 1    
@<TRIPOS>SUBSTRUCTURE
     1 UNK         1 GROUP             0       ****    0 ROOT    
