@<TRIPOS>MOLECULE
3R137
137   139    1
SMALL
USER_CHARGES


@<TRIPOS>ATOM
      1 CA         26.6112   -4.5418   -7.6623 C.3       0 UNK        -0.2020 
      2 C          26.4671   -4.2414   -6.1788 C.2       0 UNK         0.4855 
      3 O          25.9416   -3.1896   -5.8179 O.2       0 UNK        -0.5197 
      4 N          26.9086   -5.1687   -5.3166 N.am      1 UNK        -0.4892 
      5 CA         26.9773   -5.0353   -3.8492 C.3       1 UNK         0.0835 
      6 C6         28.0428   -3.9989   -3.3963 C.3       12 UNK        -0.0855 
      7 S7         29.7159   -4.4870   -3.9448 S.3       12 UNK        -0.2931 
      8 C8         30.7044   -4.2089   -2.4431 C.3       12 UNK         0.0378 
      9 C9         31.0139   -2.7322   -2.2542 C.ar      12 UNK        -0.0802 
     10 C10        32.0967   -2.1577   -2.9274 C.ar      12 UNK        -0.0944 
     11 C11        32.3935   -0.8023   -2.7656 C.ar      12 UNK        -0.0787 
     12 C12        31.6014   -0.0213   -1.9200 C.ar      12 UNK        -0.0862 
     13 C13        30.5081   -0.5807   -1.2503 C.ar      12 UNK        -0.0733 
     14 C14        30.2236   -1.9398   -1.4145 C.ar      12 UNK        -0.0832 
     15 C15        29.6385    0.2870   -0.3485 C.3       12 UNK         0.0240 
     16 S16        28.0014    0.6435   -1.0732 S.3       12 UNK        -0.2522 
     17 C17        28.4315    1.4468   -2.6553 C.3       12 UNK        -0.0967 
     18 CA         27.8249    0.6655   -3.8569 C.3       5 UNK         0.0660 
     19 N          26.3659    0.8052   -3.9166 N.am      5 UNK        -0.4015 
     20 C          25.6678    1.8857   -4.2921 C.2       4 UNK         0.4946 
     21 O          26.1859    2.9121   -4.7398 O.2       4 UNK        -0.5353 
     22 CA         24.1341    1.8170   -4.1132 C.3       4 UNK         0.0277 
     23 CB         23.4217    3.0792   -4.6369 C.3       4 UNK        -0.1981 
     24 N          23.5095    0.6378   -4.7244 N.am      4 UNK        -0.4209 
     25 C          23.5872   -0.6206   -4.2714 C.2       3 UNK         0.4942 
     26 O          24.2529   -0.9393   -3.2825 O.2       3 UNK        -0.5208 
     27 CA         22.7804   -1.6812   -5.0426 C.3       3 UNK         0.0250 
     28 CB         22.9612   -1.5626   -6.5667 C.3       3 UNK        -0.1990 
     29 N          23.1866   -3.0249   -4.6316 N.am      3 UNK        -0.4232 
     30 C          22.5378   -3.7878   -3.7414 C.2       2 UNK         0.4993 
     31 O          21.4792   -3.4581   -3.2034 O.2       2 UNK        -0.5286 
     32 CA         23.1414   -5.1642   -3.4004 C.3       2 UNK         0.0209 
     33 CB         22.3033   -6.2893   -4.0316 C.3       2 UNK        -0.1931 
     34 N          24.5337   -5.3173   -3.8301 N.am      2 UNK        -0.4546 
     35 C          25.5957   -4.8132   -3.1855 C.2       1 UNK         0.5154 
     36 O          25.5102   -4.2171   -2.1105 O.2       1 UNK        -0.5181 
     37 C          28.4710    0.9813   -5.2234 C.2       5 UNK         0.5014 
     38 O          28.1416    0.3165   -6.2095 O.2       5 UNK        -0.5248 
     39 N          29.3610    1.9845   -5.2722 N.am      6 UNK        -0.4434 
     40 CA         30.1660    2.3796   -6.4315 C.3       6 UNK         0.0363 
     41 CB         31.0741    3.5560   -6.0408 C.3       6 UNK        -0.1936 
     42 C          29.3718    2.7172   -7.7019 C.2       6 UNK         0.5081 
     43 O          29.9220    2.5692   -8.7926 O.2       6 UNK        -0.5248 
     44 N          28.0972    3.1063   -7.5519 N.am      7 UNK        -0.4718 
     45 CA         27.1578    3.3408   -8.6524 C.3       7 UNK         0.0273 
     46 CB         25.8382    3.8819   -8.0801 C.3       7 UNK        -0.1935 
     47 C          26.8915    2.0949   -9.5196 C.2       7 UNK         0.5018 
     48 O          26.5644    2.2506  -10.6969 O.2       7 UNK        -0.5186 
     49 N          27.0428    0.8986   -8.9344 N.am      8 UNK        -0.4240 
     50 CA         26.9287   -0.3867   -9.6236 C.3       8 UNK         0.0235 
     51 CB         25.8060   -1.2074   -8.9754 C.3       8 UNK        -0.2000 
     52 C          28.2489   -1.1686   -9.5824 C.2       8 UNK         0.4941 
     53 O          28.5927   -1.8108  -10.5749 O.2       8 UNK        -0.5273 
     54 N          28.9609   -1.1200   -8.4468 N.am      9 UNK        -0.4262 
     55 CA         30.1928   -1.8753   -8.2077 C.3       9 UNK         0.0264 
     56 CB         30.4587   -1.9388   -6.6951 C.3       9 UNK        -0.1955 
     57 C          31.4245   -1.3350   -8.9566 C.2       9 UNK         0.5031 
     58 O          32.3696   -2.1013   -9.1485 O.2       9 UNK        -0.5390 
     59 N          31.3999   -0.0534   -9.3643 N.am      10 UNK        -0.4204 
     60 CA         32.4573    0.6643  -10.0922 C.3       10 UNK         0.0237 
     61 CB         32.5816    0.1289  -11.5349 C.3       10 UNK        -0.1985 
     62 C          33.7983    0.6695   -9.3310 C.2       10 UNK         0.4970 
     63 O          34.8203    0.2333   -9.8644 O.2       10 UNK        -0.4914 
     64 N          33.7507    1.1421   -8.0792 N.am      11 UNK        -0.4285 
     65 CA         34.8714    1.1415   -7.1218 C.3       11 UNK         0.1007 
     66 C          36.0764    2.0521   -7.5016 C.2       11 UNK         0.5703 
     67 N          35.9326    2.9993   -8.4211 N.am      11 UNK        -0.7361 
     68 O          37.1627    1.8927   -6.9498 O.2       11 UNK        -0.4986 
     69 C69        34.3926    1.4596   -5.6796 C.3       12 UNK        -0.0947 
     70 S70        32.9930    0.4222   -5.1402 S.3       12 UNK        -0.2240 
     71 C71        33.5529   -0.1723   -3.5199 C.3       12 UNK         0.0194 
     72 H72        25.6496   -4.4323   -8.1628 H         1 UNK         0.0906 
     73 H73        27.3150   -3.8445   -8.1156 H         1 UNK         0.0906 
     74 H74        26.9735   -5.5538   -7.8412 H         1 UNK         0.0906 
     75 H75        27.3180   -6.0178   -5.6822 H         1 UNK         0.3140 
     76 H76        27.2996   -6.0093   -3.4768 H         1 UNK         0.1085 
     77 H77        28.0454   -3.9022   -2.3099 H         1 UNK         0.0836 
     78 H78        27.8152   -3.0062   -3.7887 H         1 UNK         0.0836 
     79 H79        30.1906   -4.6169   -1.5712 H         1 UNK         0.0731 
     80 H80        31.6376   -4.7674   -2.5308 H         1 UNK         0.0731 
     81 H81        32.7006   -2.7638   -3.5892 H         1 UNK         0.1312 
     82 H82        31.8282    1.0292   -1.7985 H         1 UNK         0.1406 
     83 H83        29.3801   -2.3744   -0.8957 H         1 UNK         0.1631 
     84 H84        30.1378    1.2305   -0.1223 H         1 UNK         0.0717 
     85 H85        29.4969   -0.2174    0.6084 H         1 UNK         0.0717 
     86 H86        28.0718    2.4772   -2.6334 H         1 UNK         0.0934 
     87 H87        29.5163    1.5101   -2.7235 H         1 UNK         0.0934 
     88 H88        28.0227   -0.3963   -3.6995 H         1 UNK         0.0739 
     89 H89        25.8279    0.0055   -3.5902 H         1 UNK         0.3093 
     90 H90        23.9561    1.7678   -3.0367 H         1 UNK         0.0818 
     91 H91        22.3531    3.0506   -4.4231 H         1 UNK         0.0819 
     92 H92        23.8175    3.9788   -4.1633 H         1 UNK         0.0819 
     93 H93        23.5464    3.1966   -5.7137 H         1 UNK         0.0819 
     94 H94        22.9640    0.8095   -5.5564 H         1 UNK         0.3041 
     95 H95        21.7254   -1.5206   -4.8115 H         1 UNK         0.0784 
     96 H96        22.4460   -2.3689   -7.0893 H         1 UNK         0.0793 
     97 H97        22.5584   -0.6266   -6.9542 H         1 UNK         0.0793 
     98 H98        24.0129   -1.6106   -6.8412 H         1 UNK         0.0793 
     99 H99        24.1022   -3.3196   -4.9572 H         1 UNK         0.3024 
    100 H100       23.0970   -5.2722   -2.3140 H         1 UNK         0.1171 
    101 H101       22.3066   -6.2330   -5.1209 H         1 UNK         0.0786 
    102 H102       21.2636   -6.2323   -3.7059 H         1 UNK         0.0786 
    103 H103       22.6765   -7.2723   -3.7435 H         1 UNK         0.0786 
    104 H104       24.6944   -5.7918   -4.7072 H         1 UNK         0.2977 
    105 H105       29.5275    2.5078   -4.4259 H         1 UNK         0.3127 
    106 H106       30.7962    1.5261   -6.6815 H         1 UNK         0.0770 
    107 H107       30.4939    4.4397   -5.7723 H         1 UNK         0.0814 
    108 H108       31.7301    3.8361   -6.8663 H         1 UNK         0.0814 
    109 H109       31.7123    3.3043   -5.1939 H         1 UNK         0.0814 
    110 H110       27.7215    3.1694   -6.6133 H         1 UNK         0.2983 
    111 H111       27.5934    4.1031   -9.3020 H         1 UNK         0.0947 
    112 H112       25.1330    4.1177   -8.8784 H         1 UNK         0.0806 
    113 H113       25.9962    4.7955   -7.5066 H         1 UNK         0.0806 
    114 H114       25.3581    3.1540   -7.4252 H         1 UNK         0.0806 
    115 H115       27.3222    0.8720   -7.9586 H         1 UNK         0.3000 
    116 H116       26.6743   -0.2371  -10.6751 H         1 UNK         0.0850 
    117 H117       26.0255   -1.4168   -7.9280 H         1 UNK         0.0810 
    118 H118       24.8528   -0.6810   -9.0239 H         1 UNK         0.0810 
    119 H119       25.6757   -2.1636   -9.4833 H         1 UNK         0.0810 
    120 H120       28.5985   -0.5982   -7.6492 H         1 UNK         0.3040 
    121 H121       30.0291   -2.8970   -8.5575 H         1 UNK         0.0766 
    122 H122       29.6172   -2.3833   -6.1632 H         1 UNK         0.0812 
    123 H123       30.6313   -0.9498   -6.2734 H         1 UNK         0.0812 
    124 H124       31.3386   -2.5443   -6.4733 H         1 UNK         0.0812 
    125 H125       30.5775    0.4998   -9.1540 H         1 UNK         0.3205 
    126 H126       32.1378    1.7054  -10.1586 H         1 UNK         0.0754 
    127 H127       33.2981    0.7171  -12.1095 H         1 UNK         0.0769 
    128 H128       31.6268    0.1795  -12.0586 H         1 UNK         0.0769 
    129 H129       32.9200   -0.9076  -11.5566 H         1 UNK         0.0769 
    130 H130       32.8695    1.4700   -7.7174 H         1 UNK         0.2981 
    131 H131       35.2634    0.1227   -7.1133 H         1 UNK         0.0541 
    132 H132       36.7215    3.5793   -8.6596 H         1 UNK         0.3459 
    133 H133       35.0479    3.1352   -8.8821 H         1 UNK         0.3459 
    134 H134       34.0823    2.5031   -5.6032 H         1 UNK         0.0612 
    135 H135       35.2171    1.3357   -4.9749 H         1 UNK         0.0612 
    136 H136       33.9644    0.6596   -2.9461 H         1 UNK         0.0624 
    137 H137       34.3609   -0.8928   -3.6548 H         1 UNK         0.0624 
@<TRIPOS>BOND
     1    1    2 1    
     2    1   72 1    
     3    1   73 1    
     4    1   74 1    
     5    2    3 2    
     6    2    4 am   BACKBONE|DICT|INTERRES
     7    4    5 1    
     8    4   75 1    
     9    5    6 1    
    10    5   35 1    
    11    5   76 1    
    12    6    7 1    
    13    6   77 1    
    14    6   78 1    
    15    7    8 1    
    16    8    9 1    
    17    8   79 1    
    18    8   80 1    
    19    9   10 ar   
    20    9   14 ar   
    21   10   11 ar   
    22   10   81 1    
    23   11   12 ar   
    24   11   71 1    
    25   12   13 ar   
    26   12   82 1    
    27   13   14 ar   
    28   13   15 1    
    29   14   83 1    
    30   15   16 1    
    31   15   84 1    
    32   15   85 1    
    33   16   17 1    
    34   17   18 1    
    35   17   86 1    
    36   17   87 1    
    37   18   19 1    
    38   18   37 1    
    39   18   88 1    
    40   19   20 am   BACKBONE|DICT|INTERRES
    41   19   89 1    
    42   20   21 2    
    43   20   22 1    
    44   22   23 1    
    45   22   24 1    
    46   22   90 1    
    47   23   91 1    
    48   23   92 1    
    49   23   93 1    
    50   24   25 am   BACKBONE|DICT|INTERRES
    51   24   94 1    
    52   25   26 2    
    53   25   27 1    
    54   27   28 1    
    55   27   29 1    
    56   27   95 1    
    57   28   96 1    
    58   28   97 1    
    59   28   98 1    
    60   29   30 am   BACKBONE|DICT|INTERRES
    61   29   99 1    
    62   30   31 2    
    63   30   32 1    
    64   32   33 1    
    65   32   34 1    
    66   32  100 1    
    67   33  101 1    
    68   33  102 1    
    69   33  103 1    
    70   34   35 am   BACKBONE|DICT|INTERRES
    71   34  104 1    
    72   35   36 2    
    73   37   38 2    
    74   37   39 am   BACKBONE|DICT|INTERRES
    75   39   40 1    
    76   39  105 1    
    77   40   41 1    
    78   40   42 1    
    79   40  106 1    
    80   41  107 1    
    81   41  108 1    
    82   41  109 1    
    83   42   43 2    
    84   42   44 am   BACKBONE|DICT|INTERRES
    85   44   45 1    
    86   44  110 1    
    87   45   46 1    
    88   45   47 1    
    89   45  111 1    
    90   46  112 1    
    91   46  113 1    
    92   46  114 1    
    93   47   48 2    
    94   47   49 am   BACKBONE|DICT|INTERRES
    95   49   50 1    
    96   49  115 1    
    97   50   51 1    
    98   50   52 1    
    99   50  116 1    
   100   51  117 1    
   101   51  118 1    
   102   51  119 1    
   103   52   53 2    
   104   52   54 am   BACKBONE|DICT|INTERRES
   105   54   55 1    
   106   54  120 1    
   107   55   56 1    
   108   55   57 1    
   109   55  121 1    
   110   56  122 1    
   111   56  123 1    
   112   56  124 1    
   113   57   58 2    
   114   57   59 am   BACKBONE|DICT|INTERRES
   115   59   60 1    
   116   59  125 1    
   117   60   61 1    
   118   60   62 1    
   119   60  126 1    
   120   61  127 1    
   121   61  128 1    
   122   61  129 1    
   123   62   63 2    
   124   62   64 am   BACKBONE|DICT|INTERRES
   125   64   65 1    
   126   64  130 1    
   127   65   66 1    
   128   65   69 1    
   129   65  131 1    
   130   66   67 am   BACKBONE|DICT|INTERRES
   131   66   68 2    
   132   67  132 1    
   133   67  133 1    
   134   69   70 1    
   135   69  134 1    
   136   69  135 1    
   137   70   71 1    
   138   71  136 1    
   139   71  137 1    
@<TRIPOS>SUBSTRUCTURE
     1 UNK         1 GROUP             0       ****    0 ROOT    
