@<TRIPOS>MOLECULE
3R137
137   139    1
SMALL
USER_CHARGES


@<TRIPOS>ATOM
      1 CA         27.4432   -5.1371   -7.6639 C.3       0 UNK        -0.2020 
      2 C          27.2730   -5.5626   -6.2143 C.2       0 UNK         0.4855 
      3 O          26.6865   -6.6120   -5.9495 O.2       0 UNK        -0.5197 
      4 N          27.7846   -4.7578   -5.2738 N.am      1 UNK        -0.4892 
      5 CA         27.7272   -5.0180   -3.8279 C.3       1 UNK         0.0835 
      6 C6         28.7438   -4.1493   -3.0531 C.3       12 UNK        -0.0855 
      7 S7         30.4731   -4.5196   -3.5050 S.3       12 UNK        -0.2931 
      8 C8         31.3749   -3.7872   -2.1008 C.3       12 UNK         0.0378 
      9 C9         31.2430   -2.2715   -2.0826 C.ar      12 UNK        -0.0802 
     10 C10        32.1849   -1.4697   -2.7327 C.ar      12 UNK        -0.0944 
     11 C11        32.0472   -0.0771   -2.7440 C.ar      12 UNK        -0.0787 
     12 C12        30.9509    0.5074   -2.0984 C.ar      12 UNK        -0.0862 
     13 C13        30.0001   -0.2835   -1.4465 C.ar      12 UNK        -0.0733 
     14 C14        30.1698   -1.6700   -1.4212 C.ar      12 UNK        -0.0832 
     15 C15        28.8115    0.3529   -0.7353 C.3       12 UNK         0.0240 
     16 S16        27.2153   -0.3717   -1.2495 S.3       12 UNK        -0.2522 
     17 C17        26.6215    0.7682   -2.5429 C.3       12 UNK        -0.0967 
     18 CA         26.7043    0.1560   -3.9743 C.3       5 UNK         0.0660 
     19 N          25.5333    0.4792   -4.7933 N.am      5 UNK        -0.4015 
     20 C          25.1553    1.6940   -5.2224 C.2       4 UNK         0.4946 
     21 O          25.8441    2.7070   -5.0916 O.2       4 UNK        -0.5353 
     22 CA         23.7755    1.8224   -5.9021 C.3       4 UNK         0.0277 
     23 CB         23.9132    2.2084   -7.3829 C.3       4 UNK        -0.1981 
     24 N          22.9464    0.6195   -5.7979 N.am      4 UNK        -0.4209 
     25 C          22.3288    0.2032   -4.6839 C.2       3 UNK         0.4942 
     26 O          22.3592    0.8110   -3.6131 O.2       3 UNK        -0.5208 
     27 CA         21.5722   -1.1355   -4.7640 C.3       3 UNK         0.0250 
     28 CB         21.1904   -1.5548   -6.2031 C.3       3 UNK        -0.1990 
     29 N          22.3042   -2.2178   -4.0947 N.am      3 UNK        -0.4232 
     30 C          23.5516   -2.6332   -4.3603 C.2       2 UNK         0.4993 
     31 O          24.2942   -2.1069   -5.1962 O.2       2 UNK        -0.5286 
     32 CA         24.0446   -3.8532   -3.5721 C.3       2 UNK         0.0209 
     33 CB         23.1898   -5.1011   -3.8783 C.3       2 UNK        -0.1931 
     34 N          25.4360   -4.1086   -3.9326 N.am      2 UNK        -0.4546 
     35 C          26.3109   -4.8421   -3.2356 C.2       1 UNK         0.5154 
     36 O          26.0394   -5.3769   -2.1592 O.2       1 UNK        -0.5181 
     37 C          28.0078    0.4488   -4.7419 C.2       5 UNK         0.5014 
     38 O          28.3957   -0.3687   -5.5776 O.2       5 UNK        -0.5248 
     39 N          28.6281    1.6137   -4.5024 N.am      6 UNK        -0.4434 
     40 CA         29.8613    2.0629   -5.1524 C.3       6 UNK         0.0363 
     41 CB         30.3122    3.4022   -4.5462 C.3       6 UNK        -0.1936 
     42 C          29.7356    2.1948   -6.6753 C.2       6 UNK         0.5081 
     43 O          30.6558    1.8081   -7.3942 O.2       6 UNK        -0.5248 
     44 N          28.5925    2.7132   -7.1425 N.am      7 UNK        -0.4718 
     45 CA         28.2972    2.8648   -8.5688 C.3       7 UNK         0.0273 
     46 CB         27.2467    3.9680   -8.7590 C.3       7 UNK        -0.1935 
     47 C          27.8529    1.5497   -9.2321 C.2       7 UNK         0.5018 
     48 O          27.9954    1.4212  -10.4477 O.2       7 UNK        -0.5186 
     49 N          27.3488    0.5939   -8.4366 N.am      8 UNK        -0.4240 
     50 CA         27.0173   -0.7589   -8.8910 C.3       8 UNK         0.0235 
     51 CB         26.0158   -1.4149   -7.9251 C.3       8 UNK        -0.2000 
     52 C          28.2848   -1.6145   -9.0328 C.2       8 UNK         0.4941 
     53 O          28.4482   -2.2992  -10.0423 O.2       8 UNK        -0.5273 
     54 N          29.1659   -1.5412   -8.0250 N.am      9 UNK        -0.4262 
     55 CA         30.4740   -2.1991   -7.9988 C.3       9 UNK         0.0264 
     56 CB         30.9873   -2.2026   -6.5512 C.3       9 UNK        -0.1955 
     57 C          31.5097   -1.5550   -8.9407 C.2       9 UNK         0.5031 
     58 O          32.4840   -2.2207   -9.2942 O.2       9 UNK        -0.5390 
     59 N          31.2816   -0.2887   -9.3215 N.am      10 UNK        -0.4204 
     60 CA         32.1329    0.5763  -10.1460 C.3       10 UNK         0.0237 
     61 CB         32.2906    0.0158  -11.5760 C.3       10 UNK        -0.1985 
     62 C          33.4720    0.8863   -9.4519 C.2       10 UNK         0.4970 
     63 O          34.5372    0.7299  -10.0529 O.2       10 UNK        -0.4914 
     64 N          33.3816    1.3045   -8.1842 N.am      11 UNK        -0.4285 
     65 CA         34.5168    1.6772   -7.3287 C.3       11 UNK         0.1007 
     66 C          35.2512    2.9513   -7.8285 C.2       11 UNK         0.5703 
     67 N          36.5591    3.0326   -7.6242 N.am      11 UNK        -0.7361 
     68 O          34.6439    3.8803   -8.3591 O.2       11 UNK        -0.4986 
     69 C69        34.0820    1.8428   -5.8498 C.3       12 UNK        -0.0947 
     70 S70        33.3335    0.3261   -5.1771 S.3       12 UNK        -0.2240 
     71 C71        33.0857    0.7991   -3.4369 C.3       12 UNK         0.0194 
     72 H72        28.1065   -4.2795   -7.7574 H         1 UNK         0.0906 
     73 H73        27.8670   -5.9533   -8.2484 H         1 UNK         0.0906 
     74 H74        26.4781   -4.8738   -8.0954 H         1 UNK         0.0906 
     75 H75        28.2797   -3.9202   -5.5442 H         1 UNK         0.3140 
     76 H76        27.9929   -6.0659   -3.6693 H         1 UNK         0.1085 
     77 H77        28.5507   -3.0892   -3.2309 H         1 UNK         0.0836 
     78 H78        28.6362   -4.3112   -1.9786 H         1 UNK         0.0836 
     79 H79        31.0099   -4.2138   -1.1651 H         1 UNK         0.0731 
     80 H80        32.4267   -4.0683   -2.1725 H         1 UNK         0.0731 
     81 H81        33.0217   -1.9297   -3.2404 H         1 UNK         0.1312 
     82 H82        30.8405    1.5814   -2.0939 H         1 UNK         0.1406 
     83 H83        29.4466   -2.2839   -0.9025 H         1 UNK         0.1631 
     84 H84        28.7960    1.4342   -0.8773 H         1 UNK         0.0717 
     85 H85        28.9310    0.1911    0.3368 H         1 UNK         0.0717 
     86 H86        27.0925    1.7466   -2.4525 H         1 UNK         0.0934 
     87 H87        25.5751    0.9533   -2.2927 H         1 UNK         0.0934 
     88 H88        26.6612   -0.9303   -3.8757 H         1 UNK         0.0739 
     89 H89        24.9358   -0.3161   -5.0068 H         1 UNK         0.3093 
     90 H90        23.2468    2.6321   -5.3944 H         1 UNK         0.0818 
     91 H91        22.9473    2.2091   -7.8884 H         1 UNK         0.0819 
     92 H92        24.3123    3.2175   -7.4733 H         1 UNK         0.0819 
     93 H93        24.5772    1.5357   -7.9259 H         1 UNK         0.0819 
     94 H94        22.8860    0.0331   -6.6179 H         1 UNK         0.3041 
     95 H95        20.6444   -0.9934   -4.2075 H         1 UNK         0.0784 
     96 H96        20.6371   -0.7637   -6.7116 H         1 UNK         0.0793 
     97 H97        22.0605   -1.7997   -6.8134 H         1 UNK         0.0793 
     98 H98        20.5462   -2.4341   -6.1914 H         1 UNK         0.0793 
     99 H99        21.7927   -2.6912   -3.3627 H         1 UNK         0.3024 
    100 H100       23.9899   -3.6147   -2.5074 H         1 UNK         0.1171 
    101 H101       23.5396   -5.9715   -3.3231 H         1 UNK         0.0786 
    102 H102       23.2163   -5.3525   -4.9394 H         1 UNK         0.0786 
    103 H103       22.1455   -4.9507   -3.6031 H         1 UNK         0.0786 
    104 H104       25.7322   -3.6541   -4.7876 H         1 UNK         0.2977 
    105 H105       28.1872    2.2657   -3.8707 H         1 UNK         0.3127 
    106 H106       30.6228    1.3096   -4.9530 H         1 UNK         0.0770 
    107 H107       29.5805    4.1916   -4.7231 H         1 UNK         0.0814 
    108 H108       31.2544    3.7302   -4.9870 H         1 UNK         0.0814 
    109 H109       30.4684    3.3320   -3.4714 H         1 UNK         0.0814 
    110 H110       27.8774    2.9949   -6.4833 H         1 UNK         0.2983 
    111 H111       29.2078    3.1851   -9.0810 H         1 UNK         0.0947 
    112 H112       26.9771    4.0789   -9.8103 H         1 UNK         0.0806 
    113 H113       27.6229    4.9329   -8.4186 H         1 UNK         0.0806 
    114 H114       26.3351    3.7537   -8.2065 H         1 UNK         0.0806 
    115 H115       27.3211    0.7644   -7.4417 H         1 UNK         0.3000 
    116 H116       26.5433   -0.6931   -9.8731 H         1 UNK         0.0850 
    117 H117       25.7301   -2.4065   -8.2774 H         1 UNK         0.0810 
    118 H118       25.0996   -0.8322   -7.8402 H         1 UNK         0.0810 
    119 H119       26.4275   -1.5370   -6.9234 H         1 UNK         0.0810 
    120 H120       28.9186   -1.0026   -7.1950 H         1 UNK         0.3040 
    121 H121       30.3452   -3.2348   -8.3195 H         1 UNK         0.0766 
    122 H122       31.9747   -2.6602   -6.4778 H         1 UNK         0.0812 
    123 H123       31.0620   -1.1907   -6.1531 H         1 UNK         0.0812 
    124 H124       30.3199   -2.7611   -5.8968 H         1 UNK         0.0812 
    125 H125       30.5021    0.1823   -8.8804 H         1 UNK         0.3205 
    126 H126       31.6061    1.5286  -10.2263 H         1 UNK         0.0754 
    127 H127       32.8202    0.7238  -12.2145 H         1 UNK         0.0769 
    128 H128       31.3201   -0.1726  -12.0355 H         1 UNK         0.0769 
    129 H129       32.8551   -0.9169  -11.5896 H         1 UNK         0.0769 
    130 H130       32.4564    1.4342   -7.7823 H         1 UNK         0.2981 
    131 H131       35.2285    0.8504   -7.3763 H         1 UNK         0.0541 
    132 H132       37.0654    2.2830   -7.1790 H         1 UNK         0.3459 
    133 H133       37.0516    3.8582   -7.9277 H         1 UNK         0.3459 
    134 H134       33.3632    2.6581   -5.7519 H         1 UNK         0.0612 
    135 H135       34.9384    2.1025   -5.2246 H         1 UNK         0.0612 
    136 H136       34.0356    0.7230   -2.9066 H         1 UNK         0.0624 
    137 H137       32.7869    1.8475   -3.3940 H         1 UNK         0.0624 
@<TRIPOS>BOND
     1    1    2 1    
     2    1   72 1    
     3    1   73 1    
     4    1   74 1    
     5    2    3 2    
     6    2    4 am   BACKBONE|DICT|INTERRES
     7    4    5 1    
     8    4   75 1    
     9    5    6 1    
    10    5   35 1    
    11    5   76 1    
    12    6    7 1    
    13    6   77 1    
    14    6   78 1    
    15    7    8 1    
    16    8    9 1    
    17    8   79 1    
    18    8   80 1    
    19    9   10 ar   
    20    9   14 ar   
    21   10   11 ar   
    22   10   81 1    
    23   11   12 ar   
    24   11   71 1    
    25   12   13 ar   
    26   12   82 1    
    27   13   14 ar   
    28   13   15 1    
    29   14   83 1    
    30   15   16 1    
    31   15   84 1    
    32   15   85 1    
    33   16   17 1    
    34   17   18 1    
    35   17   86 1    
    36   17   87 1    
    37   18   19 1    
    38   18   37 1    
    39   18   88 1    
    40   19   20 am   BACKBONE|DICT|INTERRES
    41   19   89 1    
    42   20   21 2    
    43   20   22 1    
    44   22   23 1    
    45   22   24 1    
    46   22   90 1    
    47   23   91 1    
    48   23   92 1    
    49   23   93 1    
    50   24   25 am   BACKBONE|DICT|INTERRES
    51   24   94 1    
    52   25   26 2    
    53   25   27 1    
    54   27   28 1    
    55   27   29 1    
    56   27   95 1    
    57   28   96 1    
    58   28   97 1    
    59   28   98 1    
    60   29   30 am   BACKBONE|DICT|INTERRES
    61   29   99 1    
    62   30   31 2    
    63   30   32 1    
    64   32   33 1    
    65   32   34 1    
    66   32  100 1    
    67   33  101 1    
    68   33  102 1    
    69   33  103 1    
    70   34   35 am   BACKBONE|DICT|INTERRES
    71   34  104 1    
    72   35   36 2    
    73   37   38 2    
    74   37   39 am   BACKBONE|DICT|INTERRES
    75   39   40 1    
    76   39  105 1    
    77   40   41 1    
    78   40   42 1    
    79   40  106 1    
    80   41  107 1    
    81   41  108 1    
    82   41  109 1    
    83   42   43 2    
    84   42   44 am   BACKBONE|DICT|INTERRES
    85   44   45 1    
    86   44  110 1    
    87   45   46 1    
    88   45   47 1    
    89   45  111 1    
    90   46  112 1    
    91   46  113 1    
    92   46  114 1    
    93   47   48 2    
    94   47   49 am   BACKBONE|DICT|INTERRES
    95   49   50 1    
    96   49  115 1    
    97   50   51 1    
    98   50   52 1    
    99   50  116 1    
   100   51  117 1    
   101   51  118 1    
   102   51  119 1    
   103   52   53 2    
   104   52   54 am   BACKBONE|DICT|INTERRES
   105   54   55 1    
   106   54  120 1    
   107   55   56 1    
   108   55   57 1    
   109   55  121 1    
   110   56  122 1    
   111   56  123 1    
   112   56  124 1    
   113   57   58 2    
   114   57   59 am   BACKBONE|DICT|INTERRES
   115   59   60 1    
   116   59  125 1    
   117   60   61 1    
   118   60   62 1    
   119   60  126 1    
   120   61  127 1    
   121   61  128 1    
   122   61  129 1    
   123   62   63 2    
   124   62   64 am   BACKBONE|DICT|INTERRES
   125   64   65 1    
   126   64  130 1    
   127   65   66 1    
   128   65   69 1    
   129   65  131 1    
   130   66   67 am   BACKBONE|DICT|INTERRES
   131   66   68 2    
   132   67  132 1    
   133   67  133 1    
   134   69   70 1    
   135   69  134 1    
   136   69  135 1    
   137   70   71 1    
   138   71  136 1    
   139   71  137 1    
@<TRIPOS>SUBSTRUCTURE
     1 UNK         1 GROUP             0       ****    0 ROOT    
