@<TRIPOS>MOLECULE
3R137
137   139    1
SMALL
USER_CHARGES


@<TRIPOS>ATOM
      1 CA         28.4576   -5.8681   -6.4124 C.3       0 UNK        -0.2020 
      2 C          27.5172   -5.3099   -5.3546 C.2       0 UNK         0.4855 
      3 O          26.3177   -5.1836   -5.6041 O.2       0 UNK        -0.5197 
      4 N          28.0618   -4.9846   -4.1755 N.am      1 UNK        -0.4892 
      5 CA         27.3730   -4.4722   -2.9848 C.3       1 UNK         0.0835 
      6 C6         28.3853   -4.1768   -1.8490 C.3       12 UNK        -0.0855 
      7 S7         29.5669   -5.5257   -1.4692 S.3       12 UNK        -0.2931 
      8 C8         30.7268   -4.7360   -0.2865 C.3       12 UNK         0.0378 
      9 C9         31.1832   -3.3623   -0.7612 C.ar      12 UNK        -0.0802 
     10 C10        32.2396   -3.2255   -1.6659 C.ar      12 UNK        -0.0944 
     11 C11        32.5388   -1.9749   -2.2178 C.ar      12 UNK        -0.0787 
     12 C12        31.7547   -0.8646   -1.8780 C.ar      12 UNK        -0.0862 
     13 C13        30.6993   -0.9907   -0.9675 C.ar      12 UNK        -0.0733 
     14 C14        30.4682   -2.2302   -0.3642 C.ar      12 UNK        -0.0832 
     15 C15        29.7565    0.1793   -0.6928 C.3       12 UNK         0.0240 
     16 S16        28.0134   -0.3397   -0.8862 S.3       12 UNK        -0.2522 
     17 C17        27.1332    1.1439   -1.4745 C.3       12 UNK        -0.0967 
     18 CA         27.5822    1.6844   -2.8588 C.3       5 UNK         0.0660 
     19 N          27.8730    0.6399   -3.8464 N.am      5 UNK        -0.4015 
     20 C          28.5993    0.8576   -4.9523 C.2       4 UNK         0.4946 
     21 O          28.9684    1.9718   -5.3199 O.2       4 UNK        -0.5353 
     22 CA         28.9952   -0.3676   -5.7804 C.3       4 UNK         0.0277 
     23 CB         30.0204   -1.2186   -5.0138 C.3       4 UNK        -0.1981 
     24 N          27.8159   -1.1641   -6.1039 N.am      4 UNK        -0.4209 
     25 C          27.1363   -1.0767   -7.2545 C.2       3 UNK         0.4942 
     26 O          27.5160   -0.4032   -8.2118 O.2       3 UNK        -0.5208 
     27 CA         25.8223   -1.8694   -7.3877 C.3       3 UNK         0.0250 
     28 CB         26.0087   -3.0624   -8.3362 C.3       3 UNK        -0.1990 
     29 N          25.2745   -2.3280   -6.1101 N.am      3 UNK        -0.4232 
     30 C          24.7722   -1.5094   -5.1728 C.2       2 UNK         0.4993 
     31 O          24.6925   -0.2862   -5.3076 O.2       2 UNK        -0.5286 
     32 CA         24.3827   -2.1511   -3.8265 C.3       2 UNK         0.0209 
     33 CB         22.9163   -2.6080   -3.8524 C.3       2 UNK        -0.1931 
     34 N          25.2463   -3.2761   -3.4331 N.am      2 UNK        -0.4546 
     35 C          26.5787   -3.1880   -3.3114 C.2       1 UNK         0.5154 
     36 O          27.1934   -2.1387   -3.5100 O.2       1 UNK        -0.5181 
     37 C          26.5773    2.7337   -3.3722 C.2       5 UNK         0.5014 
     38 O          26.7466    3.9143   -3.0613 O.2       5 UNK        -0.5248 
     39 N          25.5484    2.2988   -4.1166 N.am      6 UNK        -0.4434 
     40 CA         24.4924    3.1758   -4.6244 C.3       6 UNK         0.0363 
     41 CB         23.1124    2.5311   -4.4027 C.3       6 UNK        -0.1936 
     42 C          24.7143    3.5160   -6.1022 C.2       6 UNK         0.5081 
     43 O          24.7403    4.6981   -6.4458 O.2       6 UNK        -0.5248 
     44 N          24.8466    2.4901   -6.9568 N.am      7 UNK        -0.4718 
     45 CA         24.9035    2.6761   -8.4137 C.3       7 UNK         0.0273 
     46 CB         24.4738    1.3846   -9.1269 C.3       7 UNK        -0.1935 
     47 C          26.2748    3.1390   -8.9349 C.2       7 UNK         0.5018 
     48 O          26.3218    3.7622   -9.9961 O.2       7 UNK        -0.5186 
     49 N          27.3532    2.8096   -8.2058 N.am      8 UNK        -0.4240 
     50 CA         28.7629    3.0552   -8.5502 C.3       8 UNK         0.0235 
     51 CB         29.0826    4.5646   -8.5035 C.3       8 UNK        -0.2000 
     52 C          29.2055    2.3847   -9.8689 C.2       8 UNK         0.4941 
     53 O          30.0681    2.9159  -10.5713 O.2       8 UNK        -0.5273 
     54 N          28.6066    1.2286  -10.1785 N.am      9 UNK        -0.4262 
     55 CA         28.9214    0.3952  -11.3364 C.3       9 UNK         0.0264 
     56 CB         27.6332   -0.2812  -11.8348 C.3       9 UNK        -0.1955 
     57 C          29.9840   -0.6565  -10.9857 C.2       9 UNK         0.5031 
     58 O          30.8676   -0.9153  -11.8044 O.2       9 UNK        -0.5390 
     59 N          29.8816   -1.2379   -9.7832 N.am      10 UNK        -0.4204 
     60 CA         30.8569   -2.1749   -9.2239 C.3       10 UNK         0.0237 
     61 CB         30.1116   -3.2344   -8.3941 C.3       10 UNK        -0.1985 
     62 C          31.9155   -1.4313   -8.3895 C.2       10 UNK         0.4970 
     63 O          31.7365   -0.2526   -8.0726 O.2       10 UNK        -0.4914 
     64 N          32.9993   -2.1451   -8.0560 N.am      11 UNK        -0.4285 
     65 CA         34.2081   -1.6306   -7.3851 C.3       11 UNK         0.1007 
     66 C          34.9809   -0.5916   -8.2589 C.2       11 UNK         0.5703 
     67 N          35.8302    0.2440   -7.6743 N.am      11 UNK        -0.7361 
     68 O          34.8650   -0.5728   -9.4836 O.2       11 UNK        -0.4986 
     69 C69        33.9549   -1.1637   -5.9182 C.3       12 UNK        -0.0947 
     70 S70        33.2693   -2.4732   -4.8497 S.3       12 UNK        -0.2240 
     71 C71        33.6943   -1.8294   -3.1982 C.3       12 UNK         0.0194 
     72 H72        28.2533   -5.4225   -7.3839 H         1 UNK         0.0906 
     73 H73        29.5023   -5.6765   -6.1681 H         1 UNK         0.0906 
     74 H74        28.3197   -6.9452   -6.5008 H         1 UNK         0.0906 
     75 H75        29.0542   -5.1209   -4.0424 H         1 UNK         0.3140 
     76 H76        26.6787   -5.2416   -2.6421 H         1 UNK         0.1085 
     77 H77        27.8655   -3.8946   -0.9313 H         1 UNK         0.0836 
     78 H78        28.9751   -3.3127   -2.1521 H         1 UNK         0.0836 
     79 H79        31.5910   -5.3867   -0.1451 H         1 UNK         0.0731 
     80 H80        30.2423   -4.6571    0.6880 H         1 UNK         0.0731 
     81 H81        32.8027   -4.0965   -1.9724 H         1 UNK         0.1312 
     82 H82        31.9514    0.0918   -2.3429 H         1 UNK         0.1406 
     83 H83        29.6444   -2.3391    0.3282 H         1 UNK         0.1631 
     84 H84        29.9750    1.0048   -1.3699 H         1 UNK         0.0717 
     85 H85        29.9155    0.5502    0.3204 H         1 UNK         0.0717 
     86 H86        26.0745    0.8770   -1.4979 H         1 UNK         0.0934 
     87 H87        27.2263    1.9246   -0.7171 H         1 UNK         0.0934 
     88 H88        28.5191    2.2216   -2.6975 H         1 UNK         0.0739 
     89 H89        27.6255   -0.3146   -3.5921 H         1 UNK         0.3093 
     90 H90        29.4732   -0.0144   -6.6959 H         1 UNK         0.0818 
     91 H91        30.9179   -0.6337   -4.8120 H         1 UNK         0.0819 
     92 H92        29.6460   -1.5695   -4.0523 H         1 UNK         0.0819 
     93 H93        30.3302   -2.0923   -5.5835 H         1 UNK         0.0819 
     94 H94        27.4313   -1.7117   -5.3396 H         1 UNK         0.3041 
     95 H95        25.0811   -1.2057   -7.8319 H         1 UNK         0.0784 
     96 H96        26.3387   -2.7305   -9.3216 H         1 UNK         0.0793 
     97 H97        26.7565   -3.7593   -7.9628 H         1 UNK         0.0793 
     98 H98        25.0769   -3.6110   -8.4746 H         1 UNK         0.0793 
     99 H99        25.3675   -3.3170   -5.8989 H         1 UNK         0.3024 
    100 H100       24.4879   -1.3765   -3.0635 H         1 UNK         0.1171 
    101 H101       22.5949   -2.9677   -2.8748 H         1 UNK         0.0786 
    102 H102       22.2559   -1.7833   -4.1251 H         1 UNK         0.0786 
    103 H103       22.7551   -3.4084   -4.5758 H         1 UNK         0.0786 
    104 H104       24.8008   -4.1745   -3.3109 H         1 UNK         0.2977 
    105 H105       25.4782    1.3163   -4.3645 H         1 UNK         0.3127 
    106 H106       24.4897    4.1178   -4.0714 H         1 UNK         0.0770 
    107 H107       22.9884    1.6055   -4.9639 H         1 UNK         0.0814 
    108 H108       22.3164    3.2065   -4.7188 H         1 UNK         0.0814 
    109 H109       22.9460    2.3069   -3.3491 H         1 UNK         0.0814 
    110 H110       24.7994    1.5425   -6.6000 H         1 UNK         0.2983 
    111 H111       24.1798    3.4499   -8.6814 H         1 UNK         0.0947 
    112 H112       24.2755    1.5796  -10.1816 H         1 UNK         0.0806 
    113 H113       23.5634    0.9655   -8.6981 H         1 UNK         0.0806 
    114 H114       25.2530    0.6263   -9.0920 H         1 UNK         0.0806 
    115 H115       27.1987    2.2939   -7.3507 H         1 UNK         0.3000 
    116 H116       29.3576    2.5733   -7.7747 H         1 UNK         0.0850 
    117 H117       30.1525    4.7421   -8.6194 H         1 UNK         0.0810 
    118 H118       28.7851    5.0016   -7.5502 H         1 UNK         0.0810 
    119 H119       28.5743    5.1113   -9.2981 H         1 UNK         0.0810 
    120 H120       27.9671    0.8266   -9.4963 H         1 UNK         0.3040 
    121 H121       29.3126    1.0191  -12.1429 H         1 UNK         0.0766 
    122 H122       26.8891    0.4584  -12.1310 H         1 UNK         0.0812 
    123 H123       27.1853   -0.9166  -11.0696 H         1 UNK         0.0812 
    124 H124       27.8333   -0.9076  -12.7051 H         1 UNK         0.0812 
    125 H125       29.1414   -0.9268   -9.1619 H         1 UNK         0.3205 
    126 H126       31.3767   -2.6877  -10.0362 H         1 UNK         0.0754 
    127 H127       30.8019   -3.9439   -7.9366 H         1 UNK         0.0769 
    128 H128       29.4284   -3.8085   -9.0203 H         1 UNK         0.0769 
    129 H129       29.5258   -2.7877   -7.5945 H         1 UNK         0.0769 
    130 H130       33.0620   -3.1011   -8.3726 H         1 UNK         0.2981 
    131 H131       34.8828   -2.4856   -7.3338 H         1 UNK         0.0541 
    132 H132       35.9663    0.2375   -6.6762 H         1 UNK         0.3459 
    133 H133       36.3432    0.8968   -8.2459 H         1 UNK         0.3459 
    134 H134       33.2854   -0.3028   -5.8915 H         1 UNK         0.0612 
    135 H135       34.8908   -0.8405   -5.4612 H         1 UNK         0.0612 
    136 H136       33.9872   -0.7807   -3.2675 H         1 UNK         0.0624 
    137 H137       34.5673   -2.3650   -2.8228 H         1 UNK         0.0624 
@<TRIPOS>BOND
     1    1    2 1    
     2    1   72 1    
     3    1   73 1    
     4    1   74 1    
     5    2    3 2    
     6    2    4 am   BACKBONE|DICT|INTERRES
     7    4    5 1    
     8    4   75 1    
     9    5    6 1    
    10    5   35 1    
    11    5   76 1    
    12    6    7 1    
    13    6   77 1    
    14    6   78 1    
    15    7    8 1    
    16    8    9 1    
    17    8   79 1    
    18    8   80 1    
    19    9   10 ar   
    20    9   14 ar   
    21   10   11 ar   
    22   10   81 1    
    23   11   12 ar   
    24   11   71 1    
    25   12   13 ar   
    26   12   82 1    
    27   13   14 ar   
    28   13   15 1    
    29   14   83 1    
    30   15   16 1    
    31   15   84 1    
    32   15   85 1    
    33   16   17 1    
    34   17   18 1    
    35   17   86 1    
    36   17   87 1    
    37   18   19 1    
    38   18   37 1    
    39   18   88 1    
    40   19   20 am   BACKBONE|DICT|INTERRES
    41   19   89 1    
    42   20   21 2    
    43   20   22 1    
    44   22   23 1    
    45   22   24 1    
    46   22   90 1    
    47   23   91 1    
    48   23   92 1    
    49   23   93 1    
    50   24   25 am   BACKBONE|DICT|INTERRES
    51   24   94 1    
    52   25   26 2    
    53   25   27 1    
    54   27   28 1    
    55   27   29 1    
    56   27   95 1    
    57   28   96 1    
    58   28   97 1    
    59   28   98 1    
    60   29   30 am   BACKBONE|DICT|INTERRES
    61   29   99 1    
    62   30   31 2    
    63   30   32 1    
    64   32   33 1    
    65   32   34 1    
    66   32  100 1    
    67   33  101 1    
    68   33  102 1    
    69   33  103 1    
    70   34   35 am   BACKBONE|DICT|INTERRES
    71   34  104 1    
    72   35   36 2    
    73   37   38 2    
    74   37   39 am   BACKBONE|DICT|INTERRES
    75   39   40 1    
    76   39  105 1    
    77   40   41 1    
    78   40   42 1    
    79   40  106 1    
    80   41  107 1    
    81   41  108 1    
    82   41  109 1    
    83   42   43 2    
    84   42   44 am   BACKBONE|DICT|INTERRES
    85   44   45 1    
    86   44  110 1    
    87   45   46 1    
    88   45   47 1    
    89   45  111 1    
    90   46  112 1    
    91   46  113 1    
    92   46  114 1    
    93   47   48 2    
    94   47   49 am   BACKBONE|DICT|INTERRES
    95   49   50 1    
    96   49  115 1    
    97   50   51 1    
    98   50   52 1    
    99   50  116 1    
   100   51  117 1    
   101   51  118 1    
   102   51  119 1    
   103   52   53 2    
   104   52   54 am   BACKBONE|DICT|INTERRES
   105   54   55 1    
   106   54  120 1    
   107   55   56 1    
   108   55   57 1    
   109   55  121 1    
   110   56  122 1    
   111   56  123 1    
   112   56  124 1    
   113   57   58 2    
   114   57   59 am   BACKBONE|DICT|INTERRES
   115   59   60 1    
   116   59  125 1    
   117   60   61 1    
   118   60   62 1    
   119   60  126 1    
   120   61  127 1    
   121   61  128 1    
   122   61  129 1    
   123   62   63 2    
   124   62   64 am   BACKBONE|DICT|INTERRES
   125   64   65 1    
   126   64  130 1    
   127   65   66 1    
   128   65   69 1    
   129   65  131 1    
   130   66   67 am   BACKBONE|DICT|INTERRES
   131   66   68 2    
   132   67  132 1    
   133   67  133 1    
   134   69   70 1    
   135   69  134 1    
   136   69  135 1    
   137   70   71 1    
   138   71  136 1    
   139   71  137 1    
@<TRIPOS>SUBSTRUCTURE
     1 UNK         1 GROUP             0       ****    0 ROOT    
