@<TRIPOS>MOLECULE
3R137
137   139    1
SMALL
USER_CHARGES


@<TRIPOS>ATOM
      1 CA         30.6891    1.5055   -0.5962 C.3       0 UNK        -0.2020 
      2 C          29.8676    0.5011   -1.3898 C.2       0 UNK         0.4855 
      3 O          29.5791    0.7457   -2.5595 O.2       0 UNK        -0.5197 
      4 N          29.4972   -0.6219   -0.7573 N.am      1 UNK        -0.4892 
      5 CA         28.7133   -1.7197   -1.3387 C.3       1 UNK         0.0835 
      6 C6         28.6464   -2.9154   -0.3521 C.3       12 UNK        -0.0855 
      7 S7         27.9754   -4.4558   -1.0658 S.3       12 UNK        -0.2931 
      8 C8         29.4906   -5.4119   -1.3981 C.3       12 UNK         0.0378 
      9 C9         30.1744   -4.9268   -2.6657 C.ar      12 UNK        -0.0802 
     10 C10        31.2604   -4.0474   -2.6011 C.ar      12 UNK        -0.0944 
     11 C11        31.8500   -3.5691   -3.7752 C.ar      12 UNK        -0.0787 
     12 C12        31.3582   -3.9868   -5.0152 C.ar      12 UNK        -0.0862 
     13 C13        30.2661   -4.8558   -5.0901 C.ar      12 UNK        -0.0733 
     14 C14        29.6906   -5.3369   -3.9114 C.ar      12 UNK        -0.0832 
     15 C15        29.6694   -5.2226   -6.4431 C.3       12 UNK         0.0240 
     16 S16        27.9694   -4.5841   -6.6352 S.3       12 UNK        -0.2522 
     17 C17        28.1767   -2.8205   -6.2119 C.3       12 UNK        -0.0967 
     18 CA         27.4786   -1.8762   -7.2148 C.3       5 UNK         0.0660 
     19 N          26.0279   -2.0792   -7.2384 N.am      5 UNK        -0.4015 
     20 C          25.1602   -1.4423   -8.0375 C.2       4 UNK         0.4946 
     21 O          25.4959   -0.6504   -8.9173 O.2       4 UNK        -0.5353 
     22 CA         23.6596   -1.6819   -7.7749 C.3       4 UNK         0.0277 
     23 CB         23.1266   -2.7921   -8.6938 C.3       4 UNK        -0.1981 
     24 N          23.3385   -2.0044   -6.3767 N.am      4 UNK        -0.4209 
     25 C          23.6403   -1.2291   -5.3248 C.2       3 UNK         0.4942 
     26 O          24.1866   -0.1255   -5.4371 O.2       3 UNK        -0.5208 
     27 CA         23.3510   -1.7949   -3.9221 C.3       3 UNK         0.0250 
     28 CB         23.8282   -3.2629   -3.7989 C.3       3 UNK        -0.1990 
     29 N          24.0705   -0.9287   -2.9935 N.am      3 UNK        -0.4232 
     30 C          24.2212   -1.0261   -1.6704 C.2       2 UNK         0.4993 
     31 O          23.6406   -1.8445   -0.9544 O.2       2 UNK        -0.5286 
     32 CA         25.2337   -0.0415   -1.0531 C.3       2 UNK         0.0209 
     33 CB         24.7403    0.5022    0.2997 C.3       2 UNK        -0.1931 
     34 N          26.5680   -0.6276   -0.8715 N.am      2 UNK        -0.4546 
     35 C          27.3178   -1.2467   -1.8002 C.2       1 UNK         0.5154 
     36 O          26.9856   -1.4014   -2.9762 O.2       1 UNK        -0.5181 
     37 C          27.8693   -0.4165   -6.9083 C.2       5 UNK         0.5014 
     38 O          28.7876    0.0993   -7.5463 O.2       5 UNK        -0.5248 
     39 N          27.1664    0.2280   -5.9648 N.am      6 UNK        -0.4434 
     40 CA         27.3813    1.6301   -5.6006 C.3       6 UNK         0.0363 
     41 CB         26.6887    1.9454   -4.2658 C.3       6 UNK        -0.1936 
     42 C          26.8974    2.5899   -6.6962 C.2       6 UNK         0.5081 
     43 O          27.5624    3.5925   -6.9534 O.2       6 UNK        -0.5248 
     44 N          25.7718    2.2527   -7.3432 N.am      7 UNK        -0.4718 
     45 CA         25.2151    2.9967   -8.4777 C.3       7 UNK         0.0273 
     46 CB         23.7971    2.4897   -8.7857 C.3       7 UNK        -0.1935 
     47 C          26.1122    2.9210   -9.7256 C.2       7 UNK         0.5018 
     48 O          26.2986    3.9331  -10.4017 O.2       7 UNK        -0.5186 
     49 N          26.6767    1.7336   -9.9849 N.am      8 UNK        -0.4240 
     50 CA         27.6571    1.4831  -11.0442 C.3       8 UNK         0.0235 
     51 CB         27.7398   -0.0330  -11.2897 C.3       8 UNK        -0.2000 
     52 C          29.0598    2.0424  -10.7368 C.2       8 UNK         0.4941 
     53 O          29.8634    2.1617  -11.6625 O.2       8 UNK        -0.5273 
     54 N          29.3368    2.3379   -9.4566 N.am      9 UNK        -0.4262 
     55 CA         30.6350    2.7119   -8.8798 C.3       9 UNK         0.0264 
     56 CB         31.1080    4.0826   -9.4077 C.3       9 UNK        -0.1955 
     57 C          31.6863    1.5964   -9.0510 C.2       9 UNK         0.5031 
     58 O          32.8477    1.8736   -9.3604 O.2       9 UNK        -0.5390 
     59 N          31.2516    0.3447   -8.8444 N.am      10 UNK        -0.4204 
     60 CA         32.0272   -0.8790   -9.0698 C.3       10 UNK         0.0237 
     61 CB         31.0977   -2.0958   -8.9331 C.3       10 UNK        -0.1985 
     62 C          33.2507   -1.0318   -8.1503 C.2       10 UNK         0.4970 
     63 O          34.1926   -1.7333   -8.5210 O.2       10 UNK        -0.4914 
     64 N          33.2205   -0.3784   -6.9824 N.am      11 UNK        -0.4285 
     65 CA         34.3283   -0.3404   -6.0159 C.3       11 UNK         0.1007 
     66 C          35.5142    0.5760   -6.4403 C.2       11 UNK         0.5703 
     67 N          35.3953    1.3871   -7.4869 N.am      11 UNK        -0.7361 
     68 O          36.5679    0.5439   -5.8090 O.2       11 UNK        -0.4986 
     69 C69        33.8498   -0.0026   -4.5750 C.3       12 UNK        -0.0947 
     70 S70        32.3446   -0.8943   -4.0596 S.3       12 UNK        -0.2240 
     71 C71        32.9852   -2.5609   -3.7213 C.3       12 UNK         0.0194 
     72 H72        31.6491    1.6699   -1.0851 H         1 UNK         0.0906 
     73 H73        30.1656    2.4597   -0.5436 H         1 UNK         0.0906 
     74 H74        30.8808    1.1664    0.4217 H         1 UNK         0.0906 
     75 H75        29.7736   -0.7469    0.2062 H         1 UNK         0.3140 
     76 H76        29.2463   -2.0456   -2.2350 H         1 UNK         0.1085 
     77 H77        29.6436   -3.1251    0.0376 H         1 UNK         0.0836 
     78 H78        28.0446   -2.6598    0.5219 H         1 UNK         0.0836 
     79 H79        30.1664   -5.3619   -0.5429 H         1 UNK         0.0731 
     80 H80        29.2241   -6.4640   -1.5104 H         1 UNK         0.0731 
     81 H81        31.6272   -3.7130   -1.6403 H         1 UNK         0.1312 
     82 H82        31.8019   -3.5967   -5.9212 H         1 UNK         0.1406 
     83 H83        28.8344   -5.9961   -3.9649 H         1 UNK         0.1631 
     84 H84        29.6574   -6.3080   -6.5512 H         1 UNK         0.0717 
     85 H85        30.2846   -4.8377   -7.2579 H         1 UNK         0.0717 
     86 H86        27.7960   -2.6674   -5.2000 H         1 UNK         0.0934 
     87 H87        29.2400   -2.5849   -6.1630 H         1 UNK         0.0934 
     88 H88        27.8506   -2.1022   -8.2164 H         1 UNK         0.0739 
     89 H89        25.6637   -2.7338   -6.5629 H         1 UNK         0.3093 
     90 H90        23.1387   -0.7545   -8.0214 H         1 UNK         0.0818 
     91 H91        22.0467   -2.9050   -8.5966 H         1 UNK         0.0819 
     92 H92        23.3326   -2.5633   -9.7406 H         1 UNK         0.0819 
     93 H93        23.5879   -3.7559   -8.4745 H         1 UNK         0.0819 
     94 H94        22.8853   -2.8915   -6.2100 H         1 UNK         0.3041 
     95 H95        22.2805   -1.7228   -3.7243 H         1 UNK         0.0784 
     96 H96        23.3043   -3.9208   -4.4923 H         1 UNK         0.0793 
     97 H97        24.8975   -3.3546   -3.9966 H         1 UNK         0.0793 
     98 H98        23.6443   -3.6664   -2.8039 H         1 UNK         0.0793 
     99 H99        24.5857   -0.2115   -3.4916 H         1 UNK         0.3024 
    100 H100       25.3392    0.8094   -1.7288 H         1 UNK         0.1171 
    101 H101       23.7464    0.9418    0.2041 H         1 UNK         0.0786 
    102 H102       25.4014    1.2809    0.6809 H         1 UNK         0.0786 
    103 H103       24.6773   -0.2838    1.0535 H         1 UNK         0.0786 
    104 H104       26.9581   -0.5465    0.0556 H         1 UNK         0.2977 
    105 H105       26.4010   -0.2485   -5.5050 H         1 UNK         0.3127 
    106 H106       28.4547    1.7840   -5.4672 H         1 UNK         0.0770 
    107 H107       26.8826    2.9754   -3.9638 H         1 UNK         0.0814 
    108 H108       27.0620    1.3037   -3.4693 H         1 UNK         0.0814 
    109 H109       25.6074    1.8229   -4.3259 H         1 UNK         0.0814 
    110 H110       25.2888    1.4098   -7.0599 H         1 UNK         0.2983 
    111 H111       25.1447    4.0469   -8.1856 H         1 UNK         0.0947 
    112 H112       23.3429    3.0729   -9.5879 H         1 UNK         0.0806 
    113 H113       23.1464    2.5746   -7.9151 H         1 UNK         0.0806 
    114 H114       23.7978    1.4472   -9.1040 H         1 UNK         0.0806 
    115 H115       26.3925    0.9301   -9.4275 H         1 UNK         0.3000 
    116 H116       27.3052    1.9629  -11.9599 H         1 UNK         0.0850 
    117 H117       28.4370   -0.2637  -12.0963 H         1 UNK         0.0810 
    118 H118       26.7697   -0.4427  -11.5719 H         1 UNK         0.0810 
    119 H119       28.0804   -0.5651  -10.4003 H         1 UNK         0.0810 
    120 H120       28.6027    2.1723   -8.7803 H         1 UNK         0.3040 
    121 H121       30.4696    2.8116   -7.8059 H         1 UNK         0.0766 
    122 H122       32.0037    4.4143   -8.8813 H         1 UNK         0.0812 
    123 H123       30.3447    4.8469   -9.2624 H         1 UNK         0.0812 
    124 H124       31.3514    4.0474  -10.4699 H         1 UNK         0.0812 
    125 H125       30.2952    0.2257   -8.5082 H         1 UNK         0.3205 
    126 H126       32.3975   -0.8447  -10.0964 H         1 UNK         0.0754 
    127 H127       31.6304   -3.0230   -9.1491 H         1 UNK         0.0769 
    128 H128       30.2577   -2.0359   -9.6255 H         1 UNK         0.0769 
    129 H129       30.6964   -2.1780   -7.9239 H         1 UNK         0.0769 
    130 H130       32.4039    0.1648   -6.7475 H         1 UNK         0.2981 
    131 H131       34.7475   -1.3471   -5.9806 H         1 UNK         0.0541 
    132 H132       34.5388    1.4244   -8.0252 H         1 UNK         0.3459 
    133 H133       36.1754    1.9691   -7.7474 H         1 UNK         0.3459 
    134 H134       34.6404   -0.2070   -3.8506 H         1 UNK         0.0612 
    135 H135       33.6309    1.0636   -4.4928 H         1 UNK         0.0612 
    136 H136       33.4761   -2.5711   -2.7470 H         1 UNK         0.0624 
    137 H137       33.7421   -2.8314   -4.4580 H         1 UNK         0.0624 
@<TRIPOS>BOND
     1    1    2 1    
     2    1   72 1    
     3    1   73 1    
     4    1   74 1    
     5    2    3 2    
     6    2    4 am   BACKBONE|DICT|INTERRES
     7    4    5 1    
     8    4   75 1    
     9    5    6 1    
    10    5   35 1    
    11    5   76 1    
    12    6    7 1    
    13    6   77 1    
    14    6   78 1    
    15    7    8 1    
    16    8    9 1    
    17    8   79 1    
    18    8   80 1    
    19    9   10 ar   
    20    9   14 ar   
    21   10   11 ar   
    22   10   81 1    
    23   11   12 ar   
    24   11   71 1    
    25   12   13 ar   
    26   12   82 1    
    27   13   14 ar   
    28   13   15 1    
    29   14   83 1    
    30   15   16 1    
    31   15   84 1    
    32   15   85 1    
    33   16   17 1    
    34   17   18 1    
    35   17   86 1    
    36   17   87 1    
    37   18   19 1    
    38   18   37 1    
    39   18   88 1    
    40   19   20 am   BACKBONE|DICT|INTERRES
    41   19   89 1    
    42   20   21 2    
    43   20   22 1    
    44   22   23 1    
    45   22   24 1    
    46   22   90 1    
    47   23   91 1    
    48   23   92 1    
    49   23   93 1    
    50   24   25 am   BACKBONE|DICT|INTERRES
    51   24   94 1    
    52   25   26 2    
    53   25   27 1    
    54   27   28 1    
    55   27   29 1    
    56   27   95 1    
    57   28   96 1    
    58   28   97 1    
    59   28   98 1    
    60   29   30 am   BACKBONE|DICT|INTERRES
    61   29   99 1    
    62   30   31 2    
    63   30   32 1    
    64   32   33 1    
    65   32   34 1    
    66   32  100 1    
    67   33  101 1    
    68   33  102 1    
    69   33  103 1    
    70   34   35 am   BACKBONE|DICT|INTERRES
    71   34  104 1    
    72   35   36 2    
    73   37   38 2    
    74   37   39 am   BACKBONE|DICT|INTERRES
    75   39   40 1    
    76   39  105 1    
    77   40   41 1    
    78   40   42 1    
    79   40  106 1    
    80   41  107 1    
    81   41  108 1    
    82   41  109 1    
    83   42   43 2    
    84   42   44 am   BACKBONE|DICT|INTERRES
    85   44   45 1    
    86   44  110 1    
    87   45   46 1    
    88   45   47 1    
    89   45  111 1    
    90   46  112 1    
    91   46  113 1    
    92   46  114 1    
    93   47   48 2    
    94   47   49 am   BACKBONE|DICT|INTERRES
    95   49   50 1    
    96   49  115 1    
    97   50   51 1    
    98   50   52 1    
    99   50  116 1    
   100   51  117 1    
   101   51  118 1    
   102   51  119 1    
   103   52   53 2    
   104   52   54 am   BACKBONE|DICT|INTERRES
   105   54   55 1    
   106   54  120 1    
   107   55   56 1    
   108   55   57 1    
   109   55  121 1    
   110   56  122 1    
   111   56  123 1    
   112   56  124 1    
   113   57   58 2    
   114   57   59 am   BACKBONE|DICT|INTERRES
   115   59   60 1    
   116   59  125 1    
   117   60   61 1    
   118   60   62 1    
   119   60  126 1    
   120   61  127 1    
   121   61  128 1    
   122   61  129 1    
   123   62   63 2    
   124   62   64 am   BACKBONE|DICT|INTERRES
   125   64   65 1    
   126   64  130 1    
   127   65   66 1    
   128   65   69 1    
   129   65  131 1    
   130   66   67 am   BACKBONE|DICT|INTERRES
   131   66   68 2    
   132   67  132 1    
   133   67  133 1    
   134   69   70 1    
   135   69  134 1    
   136   69  135 1    
   137   70   71 1    
   138   71  136 1    
   139   71  137 1    
@<TRIPOS>SUBSTRUCTURE
     1 UNK         1 GROUP             0       ****    0 ROOT    
