@<TRIPOS>MOLECULE
3R137
137   139    1
SMALL
USER_CHARGES


@<TRIPOS>ATOM
      1 CA         28.4402   -5.4979   -5.8172 C.3       0 UNK        -0.2020 
      2 C          27.3407   -4.9505   -4.9201 C.2       0 UNK         0.4855 
      3 O          26.1699   -4.9743   -5.2997 O.2       0 UNK        -0.5197 
      4 N          27.7165   -4.4587   -3.7336 N.am      1 UNK        -0.4892 
      5 CA         26.8516   -3.9298   -2.6713 C.3       1 UNK         0.0835 
      6 C6         27.6793   -3.5307   -1.4202 C.3       12 UNK        -0.0855 
      7 S7         28.8103   -4.8580   -0.8780 S.3       12 UNK        -0.2931 
      8 C8         30.0851   -3.9239    0.0288 C.3       12 UNK         0.0378 
      9 C9         30.8807   -2.9539   -0.8416 C.ar      12 UNK        -0.0802 
     10 C10        31.6374   -3.4162   -1.9260 C.ar      12 UNK        -0.0944 
     11 C11        32.4376   -2.5363   -2.6656 C.ar      12 UNK        -0.0787 
     12 C12        32.4841   -1.1869   -2.2983 C.ar      12 UNK        -0.0862 
     13 C13        31.7193   -0.7075   -1.2309 C.ar      12 UNK        -0.0733 
     14 C14        30.9133   -1.5945   -0.5121 C.ar      12 UNK        -0.0832 
     15 C15        31.8253    0.7533   -0.8139 C.3       12 UNK         0.0240 
     16 S16        31.2127    1.8943   -2.0923 S.3       12 UNK        -0.2522 
     17 C17        29.4181    1.9350   -1.7630 C.3       12 UNK        -0.0967 
     18 CA         28.6085    1.9703   -3.0847 C.3       5 UNK         0.0660 
     19 N          28.7540    0.7160   -3.8330 N.am      5 UNK        -0.4015 
     20 C          28.5184    0.5301   -5.1377 C.2       4 UNK         0.4946 
     21 O          28.0499    1.4019   -5.8697 O.2       4 UNK        -0.5353 
     22 CA         28.8479   -0.8427   -5.7388 C.3       4 UNK         0.0277 
     23 CB         29.6223   -1.7685   -4.7835 C.3       4 UNK        -0.1981 
     24 N          27.6111   -1.4968   -6.1499 N.am      4 UNK        -0.4209 
     25 C          27.0269   -1.3731   -7.3487 C.2       3 UNK         0.4942 
     26 O          27.5041   -0.7212   -8.2776 O.2       3 UNK        -0.5208 
     27 CA         25.6957   -2.1153   -7.5648 C.3       3 UNK         0.0250 
     28 CB         25.9139   -3.3910   -8.3925 C.3       3 UNK        -0.1990 
     29 N          25.0252   -2.4466   -6.3052 N.am      3 UNK        -0.4232 
     30 C          24.3653   -1.5462   -5.5611 C.2       2 UNK         0.4993 
     31 O          24.1858   -0.3796   -5.9098 O.2       2 UNK        -0.5286 
     32 CA         23.8638   -2.0059   -4.1793 C.3       2 UNK         0.0209 
     33 CB         22.4412   -2.5773   -4.2835 C.3       2 UNK        -0.1931 
     34 N          24.7454   -2.9918   -3.5432 N.am      2 UNK        -0.4546 
     35 C          26.0089   -2.7397   -3.1739 C.2       1 UNK         0.5154 
     36 O          26.5341   -1.6309   -3.2805 O.2       1 UNK        -0.5181 
     37 C          27.1363    2.4116   -2.8904 C.2       5 UNK         0.5014 
     38 O          26.7066    2.6823   -1.7671 O.2       5 UNK        -0.5248 
     39 N          26.4117    2.5265   -4.0056 N.am      6 UNK        -0.4434 
     40 CA         25.1154    3.1723   -4.1591 C.3       6 UNK         0.0363 
     41 CB         23.9674    2.3011   -3.6183 C.3       6 UNK        -0.1936 
     42 C          24.9397    3.5533   -5.6348 C.2       6 UNK         0.5081 
     43 O          24.8402    4.7427   -5.9367 O.2       6 UNK        -0.5248 
     44 N          24.9432    2.5567   -6.5343 N.am      7 UNK        -0.4718 
     45 CA         24.8229    2.7717   -7.9837 C.3       7 UNK         0.0273 
     46 CB         24.3254    1.4848   -8.6562 C.3       7 UNK        -0.1935 
     47 C          26.1253    3.2386   -8.6612 C.2       7 UNK         0.5018 
     48 O          26.0467    3.8917   -9.7025 O.2       7 UNK        -0.5186 
     49 N          27.2833    2.8875   -8.0809 N.am      8 UNK        -0.4240 
     50 CA         28.6465    3.1606   -8.5542 C.3       8 UNK         0.0235 
     51 CB         28.9431    4.6760   -8.5435 C.3       8 UNK        -0.2000 
     52 C          28.9749    2.4836   -9.9000 C.2       8 UNK         0.4941 
     53 O          29.6830    3.0702  -10.7215 O.2       8 UNK        -0.5273 
     54 N          28.4604    1.2633  -10.1034 N.am      9 UNK        -0.4262 
     55 CA         28.6881    0.4536  -11.3009 C.3       9 UNK         0.0264 
     56 CB         27.3669   -0.2116  -11.7246 C.3       9 UNK        -0.1955 
     57 C          29.7772   -0.6035  -11.0631 C.2       9 UNK         0.5031 
     58 O          30.6540   -0.7674  -11.9132 O.2       9 UNK        -0.5390 
     59 N          29.6971   -1.3088   -9.9280 N.am      10 UNK        -0.4204 
     60 CA         30.6289   -2.3653   -9.5310 C.3       10 UNK         0.0237 
     61 CB         29.8678   -3.4078   -8.6953 C.3       10 UNK        -0.1985 
     62 C          31.8171   -1.8060   -8.7320 C.2       10 UNK         0.4970 
     63 O          31.7152   -0.7171   -8.1623 O.2       10 UNK        -0.4914 
     64 N          32.8932   -2.6055   -8.6861 N.am      11 UNK        -0.4285 
     65 CA         34.1631   -2.3878   -7.9688 C.3       11 UNK         0.1007 
     66 C          34.8063   -0.9797   -8.1672 C.2       11 UNK         0.5703 
     67 N          35.4625   -0.4143   -7.1622 N.am      11 UNK        -0.7361 
     68 O          34.7788   -0.4264   -9.2652 O.2       11 UNK        -0.4986 
     69 C69        34.1480   -2.9517   -6.5130 C.3       12 UNK        -0.0947 
     70 S70        33.0631   -2.0681   -5.3477 S.3       12 UNK        -0.2240 
     71 C71        33.2852   -3.0508   -3.8277 C.3       12 UNK         0.0194 
     72 H72        29.4308   -5.3534   -5.3861 H         1 UNK         0.0906 
     73 H73        28.2926   -6.5653   -5.9784 H         1 UNK         0.0906 
     74 H74        28.4196   -5.0039   -6.7860 H         1 UNK         0.0906 
     75 H75        28.6935   -4.4949   -3.4789 H         1 UNK         0.3140 
     76 H76        26.1710   -4.7322   -2.3793 H         1 UNK         0.1085 
     77 H77        27.0176   -3.2797   -0.5891 H         1 UNK         0.0836 
     78 H78        28.2685   -2.6341   -1.6197 H         1 UNK         0.0836 
     79 H79        30.7797   -4.6342    0.4793 H         1 UNK         0.0731 
     80 H80        29.6071   -3.4014    0.8590 H         1 UNK         0.0731 
     81 H81        31.6173   -4.4678   -2.1776 H         1 UNK         0.1312 
     82 H82        33.1190   -0.5039   -2.8463 H         1 UNK         0.1406 
     83 H83        30.3416   -1.2323    0.3318 H         1 UNK         0.1631 
     84 H84        32.8745    0.9827   -0.6224 H         1 UNK         0.0717 
     85 H85        31.3003    0.9394    0.1244 H         1 UNK         0.0717 
     86 H86        29.1203    1.0810   -1.1518 H         1 UNK         0.0934 
     87 H87        29.2274    2.8253   -1.1604 H         1 UNK         0.0934 
     88 H88        29.0497    2.7561   -3.7027 H         1 UNK         0.0739 
     89 H89        29.0937   -0.0702   -3.2999 H         1 UNK         0.3093 
     90 H90        29.4782   -0.6613   -6.6114 H         1 UNK         0.0818 
     91 H91        30.5246   -1.2754   -4.4259 H         1 UNK         0.0819 
     92 H92        29.0433   -2.0504   -3.9067 H         1 UNK         0.0819 
     93 H93        29.9358   -2.6831   -5.2860 H         1 UNK         0.0819 
     94 H94        27.0938   -1.9556   -5.4124 H         1 UNK         0.3041 
     95 H95        25.0388   -1.4648   -8.1424 H         1 UNK         0.0784 
     96 H96        26.3815   -3.1586   -9.3505 H         1 UNK         0.0793 
     97 H97        26.5578   -4.1043   -7.8809 H         1 UNK         0.0793 
     98 H98        24.9685   -3.8892   -8.6071 H         1 UNK         0.0793 
     99 H99        25.1700   -3.3843   -5.9392 H         1 UNK         0.3024 
    100 H100       23.8336   -1.1231   -3.5367 H         1 UNK         0.1171 
    101 H101       22.0398   -2.8252   -3.3007 H         1 UNK         0.0786 
    102 H102       21.7627   -1.8520   -4.7352 H         1 UNK         0.0786 
    103 H103       22.4109   -3.4785   -4.8972 H         1 UNK         0.0786 
    104 H104       24.3996   -3.9394   -3.4813 H         1 UNK         0.2977 
    105 H105       26.8756    2.2479   -4.8708 H         1 UNK         0.3127 
    106 H106       25.1314    4.1021   -3.5862 H         1 UNK         0.0770 
    107 H107       23.9741    1.3045   -4.0521 H         1 UNK         0.0814 
    108 H108       22.9982    2.7501   -3.8382 H         1 UNK         0.0814 
    109 H109       24.0342    2.1887   -2.5363 H         1 UNK         0.0814 
    110 H110       24.9646    1.5934   -6.2139 H         1 UNK         0.2983 
    111 H111       24.0716    3.5468   -8.1522 H         1 UNK         0.0947 
    112 H112       24.0982    1.6584   -9.7088 H         1 UNK         0.0806 
    113 H113       23.4186    1.1063   -8.1842 H         1 UNK         0.0806 
    114 H114       25.0833    0.7051   -8.6156 H         1 UNK         0.0806 
    115 H115       27.2513    2.3145   -7.2400 H         1 UNK         0.3000 
    116 H116       29.3146    2.6978   -7.8266 H         1 UNK         0.0850 
    117 H117       29.9962    4.8696   -8.7505 H         1 UNK         0.0810 
    118 H118       28.7189    5.1161   -7.5718 H         1 UNK         0.0810 
    119 H119       28.3614    5.2086   -9.2963 H         1 UNK         0.0810 
    120 H120       27.9389    0.8173   -9.3530 H         1 UNK         0.3040 
    121 H121       29.0161    1.0896  -12.1260 H         1 UNK         0.0766 
    122 H122       26.6046    0.5350  -11.9482 H         1 UNK         0.0812 
    123 H123       26.9713   -0.8688  -10.9495 H         1 UNK         0.0812 
    124 H124       27.5049   -0.8136  -12.6237 H         1 UNK         0.0812 
    125 H125       28.9552   -1.0813   -9.2680 H         1 UNK         0.3205 
    126 H126       31.0124   -2.8573  -10.4277 H         1 UNK         0.0754 
    127 H127       29.0019   -3.7941   -9.2332 H         1 UNK         0.0769 
    128 H128       29.5193   -2.9876   -7.7528 H         1 UNK         0.0769 
    129 H129       30.5039   -4.2600   -8.4528 H         1 UNK         0.0769 
    130 H130       32.8558   -3.4657   -9.2124 H         1 UNK         0.2981 
    131 H131       34.8592   -3.0330   -8.5058 H         1 UNK         0.0541 
    132 H132       35.9008    0.4823   -7.3019 H         1 UNK         0.3459 
    133 H133       35.4796   -0.8504   -6.2539 H         1 UNK         0.3459 
    134 H134       33.8285   -3.9947   -6.5364 H         1 UNK         0.0612 
    135 H135       35.1588   -2.9680   -6.1023 H         1 UNK         0.0612 
    136 H136       34.3360   -3.0279   -3.5366 H         1 UNK         0.0624 
    137 H137       33.0413   -4.0912   -4.0476 H         1 UNK         0.0624 
@<TRIPOS>BOND
     1    1    2 1    
     2    1   72 1    
     3    1   73 1    
     4    1   74 1    
     5    2    3 2    
     6    2    4 am   BACKBONE|DICT|INTERRES
     7    4    5 1    
     8    4   75 1    
     9    5    6 1    
    10    5   35 1    
    11    5   76 1    
    12    6    7 1    
    13    6   77 1    
    14    6   78 1    
    15    7    8 1    
    16    8    9 1    
    17    8   79 1    
    18    8   80 1    
    19    9   10 ar   
    20    9   14 ar   
    21   10   11 ar   
    22   10   81 1    
    23   11   12 ar   
    24   11   71 1    
    25   12   13 ar   
    26   12   82 1    
    27   13   14 ar   
    28   13   15 1    
    29   14   83 1    
    30   15   16 1    
    31   15   84 1    
    32   15   85 1    
    33   16   17 1    
    34   17   18 1    
    35   17   86 1    
    36   17   87 1    
    37   18   19 1    
    38   18   37 1    
    39   18   88 1    
    40   19   20 am   BACKBONE|DICT|INTERRES
    41   19   89 1    
    42   20   21 2    
    43   20   22 1    
    44   22   23 1    
    45   22   24 1    
    46   22   90 1    
    47   23   91 1    
    48   23   92 1    
    49   23   93 1    
    50   24   25 am   BACKBONE|DICT|INTERRES
    51   24   94 1    
    52   25   26 2    
    53   25   27 1    
    54   27   28 1    
    55   27   29 1    
    56   27   95 1    
    57   28   96 1    
    58   28   97 1    
    59   28   98 1    
    60   29   30 am   BACKBONE|DICT|INTERRES
    61   29   99 1    
    62   30   31 2    
    63   30   32 1    
    64   32   33 1    
    65   32   34 1    
    66   32  100 1    
    67   33  101 1    
    68   33  102 1    
    69   33  103 1    
    70   34   35 am   BACKBONE|DICT|INTERRES
    71   34  104 1    
    72   35   36 2    
    73   37   38 2    
    74   37   39 am   BACKBONE|DICT|INTERRES
    75   39   40 1    
    76   39  105 1    
    77   40   41 1    
    78   40   42 1    
    79   40  106 1    
    80   41  107 1    
    81   41  108 1    
    82   41  109 1    
    83   42   43 2    
    84   42   44 am   BACKBONE|DICT|INTERRES
    85   44   45 1    
    86   44  110 1    
    87   45   46 1    
    88   45   47 1    
    89   45  111 1    
    90   46  112 1    
    91   46  113 1    
    92   46  114 1    
    93   47   48 2    
    94   47   49 am   BACKBONE|DICT|INTERRES
    95   49   50 1    
    96   49  115 1    
    97   50   51 1    
    98   50   52 1    
    99   50  116 1    
   100   51  117 1    
   101   51  118 1    
   102   51  119 1    
   103   52   53 2    
   104   52   54 am   BACKBONE|DICT|INTERRES
   105   54   55 1    
   106   54  120 1    
   107   55   56 1    
   108   55   57 1    
   109   55  121 1    
   110   56  122 1    
   111   56  123 1    
   112   56  124 1    
   113   57   58 2    
   114   57   59 am   BACKBONE|DICT|INTERRES
   115   59   60 1    
   116   59  125 1    
   117   60   61 1    
   118   60   62 1    
   119   60  126 1    
   120   61  127 1    
   121   61  128 1    
   122   61  129 1    
   123   62   63 2    
   124   62   64 am   BACKBONE|DICT|INTERRES
   125   64   65 1    
   126   64  130 1    
   127   65   66 1    
   128   65   69 1    
   129   65  131 1    
   130   66   67 am   BACKBONE|DICT|INTERRES
   131   66   68 2    
   132   67  132 1    
   133   67  133 1    
   134   69   70 1    
   135   69  134 1    
   136   69  135 1    
   137   70   71 1    
   138   71  136 1    
   139   71  137 1    
@<TRIPOS>SUBSTRUCTURE
     1 UNK         1 GROUP             0       ****    0 ROOT    
