@<TRIPOS>MOLECULE
3R137
137   139    1
SMALL
USER_CHARGES


@<TRIPOS>ATOM
      1 CA         30.1864   -0.3788    0.9229 C.3       0 UNK        -0.2020 
      2 C          29.4095   -1.1715   -0.1170 C.2       0 UNK         0.4855 
      3 O          29.0241   -0.6164   -1.1455 O.2       0 UNK        -0.5197 
      4 N          29.1846   -2.4661    0.1389 N.am      1 UNK        -0.4892 
      5 CA         28.4464   -3.3763   -0.7416 C.3       1 UNK         0.0835 
      6 C6         28.7447   -4.8700   -0.4418 C.3       12 UNK        -0.0855 
      7 S7         30.5330   -5.2456   -0.3624 S.3       12 UNK        -0.2931 
      8 C8         30.8896   -5.8825   -2.0353 C.3       12 UNK         0.0378 
      9 C9         30.6638   -4.8545   -3.1400 C.ar      12 UNK        -0.0802 
     10 C10        31.1848   -3.5582   -3.0365 C.ar      12 UNK        -0.0944 
     11 C11        30.9514   -2.6125   -4.0396 C.ar      12 UNK        -0.0787 
     12 C12        30.2167   -2.9856   -5.1683 C.ar      12 UNK        -0.0862 
     13 C13        29.7192   -4.2841   -5.3033 C.ar      12 UNK        -0.0733 
     14 C14        29.9408   -5.2124   -4.2827 C.ar      12 UNK        -0.0832 
     15 C15        28.9688   -4.6883   -6.5652 C.3       12 UNK         0.0240 
     16 S16        27.2000   -5.0176   -6.2786 S.3       12 UNK        -0.2522 
     17 C17        26.5829   -3.4353   -5.6175 C.3       12 UNK        -0.0967 
     18 CA         26.3083   -2.3690   -6.7151 C.3       5 UNK         0.0660 
     19 N          25.0540   -1.6501   -6.4833 N.am      5 UNK        -0.4015 
     20 C          24.4661   -0.8192   -7.3556 C.2       4 UNK         0.4946 
     21 O          24.8875   -0.6001   -8.4915 O.2       4 UNK        -0.5353 
     22 CA         23.2128   -0.0795   -6.8579 C.3       4 UNK         0.0277 
     23 CB         21.9574   -0.9426   -7.0612 C.3       4 UNK        -0.1981 
     24 N          23.3146    0.3216   -5.4509 N.am      4 UNK        -0.4209 
     25 C          24.1702    1.2489   -4.9974 C.2       3 UNK         0.4942 
     26 O          24.9356    1.8862   -5.7211 O.2       3 UNK        -0.5208 
     27 CA         24.2117    1.4691   -3.4747 C.3       3 UNK         0.0250 
     28 CB         23.0540    2.3762   -3.0270 C.3       3 UNK        -0.1990 
     29 N          24.2126    0.2348   -2.6752 N.am      3 UNK        -0.4232 
     30 C          25.1111   -0.7522   -2.7944 C.2       2 UNK         0.4993 
     31 O          25.9671   -0.7966   -3.6807 O.2       2 UNK        -0.5286 
     32 CA         25.0488   -1.8962   -1.7785 C.3       2 UNK         0.0209 
     33 CB         24.0333   -2.9713   -2.2029 C.3       2 UNK        -0.1931 
     34 N          26.3904   -2.4669   -1.7091 N.am      2 UNK        -0.4546 
     35 C          26.9401   -3.0621   -0.6485 C.2       1 UNK         0.5154 
     36 O          26.3233   -3.3235    0.3871 O.2       1 UNK        -0.5181 
     37 C          27.4782   -1.3775   -6.8429 C.2       5 UNK         0.5014 
     38 O          28.2394   -1.4527   -7.8061 O.2       5 UNK        -0.5248 
     39 N          27.5766   -0.4498   -5.8806 N.am      6 UNK        -0.4434 
     40 CA         28.5771    0.6137   -5.8186 C.3       6 UNK         0.0363 
     41 CB         28.3999    1.4130   -4.5185 C.3       6 UNK        -0.1936 
     42 C          28.5448    1.5420   -7.0380 C.2       6 UNK         0.5081 
     43 O          29.6089    1.8924   -7.5474 O.2       6 UNK        -0.5248 
     44 N          27.3372    1.8896   -7.5033 N.am      7 UNK        -0.4718 
     45 CA         27.1133    2.6542   -8.7301 C.3       7 UNK         0.0273 
     46 CB         25.6363    3.0702   -8.8173 C.3       7 UNK        -0.1935 
     47 C          27.5411    1.8890   -9.9938 C.2       7 UNK         0.5018 
     48 O          28.1882    2.4789  -10.8592 O.2       7 UNK        -0.5186 
     49 N          27.1886    0.5971  -10.0742 N.am      8 UNK        -0.4240 
     50 CA         27.5302   -0.2861  -11.1929 C.3       8 UNK         0.0235 
     51 CB         26.7199   -1.5889  -11.0929 C.3       8 UNK        -0.2000 
     52 C          29.0353   -0.5869  -11.2869 C.2       8 UNK         0.4941 
     53 O          29.5994   -0.5122  -12.3792 O.2       8 UNK        -0.5273 
     54 N          29.6573   -0.9176  -10.1475 N.am      9 UNK        -0.4262 
     55 CA         31.0855   -1.2291  -10.0404 C.3       9 UNK         0.0264 
     56 CB         31.3249   -2.0407   -8.7587 C.3       9 UNK        -0.1955 
     57 C          31.9921    0.0138  -10.0536 C.2       9 UNK         0.5031 
     58 O          33.1903   -0.1335  -10.2990 O.2       9 UNK        -0.5390 
     59 N          31.4181    1.1939   -9.7757 N.am      10 UNK        -0.4204 
     60 CA         32.0778    2.4917   -9.6028 C.3       10 UNK         0.0237 
     61 CB         32.7499    2.9636  -10.9105 C.3       10 UNK        -0.1985 
     62 C          33.0242    2.4878   -8.3872 C.2       10 UNK         0.4970 
     63 O          34.1998    2.8369   -8.5144 O.2       10 UNK        -0.4914 
     64 N          32.4851    2.0873   -7.2272 N.am      11 UNK        -0.4285 
     65 CA         33.1977    2.0764   -5.9364 C.3       11 UNK         0.1007 
     66 C          33.4984    3.4915   -5.3587 C.2       11 UNK         0.5703 
     67 N          32.8466    4.5534   -5.8193 N.am      11 UNK        -0.7361 
     68 O          34.3449    3.6269   -4.4784 O.2       11 UNK        -0.4986 
     69 C69        32.4790    1.2051   -4.8720 C.3       12 UNK        -0.0947 
     70 S70        32.3547   -0.5545   -5.3258 S.3       12 UNK        -0.2240 
     71 C71        31.4429   -1.1786   -3.8735 C.3       12 UNK         0.0194 
     72 H72        29.5803    0.4472    1.2939 H         1 UNK         0.0906 
     73 H73        30.4776   -0.9955    1.7731 H         1 UNK         0.0906 
     74 H74        31.0911    0.0350    0.4784 H         1 UNK         0.0906 
     75 H75        29.5178   -2.8746    1.0005 H         1 UNK         0.3140 
     76 H76        28.7668   -3.1804   -1.7666 H         1 UNK         0.1085 
     77 H77        28.2744   -5.5088   -1.1918 H         1 UNK         0.0836 
     78 H78        28.3110   -5.1621    0.5167 H         1 UNK         0.0836 
     79 H79        31.9308   -6.2054   -2.0708 H         1 UNK         0.0731 
     80 H80        30.2854   -6.7754   -2.2037 H         1 UNK         0.0731 
     81 H81        31.7452   -3.2777   -2.1551 H         1 UNK         0.1312 
     82 H82        30.0399   -2.2605   -5.9477 H         1 UNK         0.1406 
     83 H83        29.5488   -6.2156   -4.3847 H         1 UNK         0.1631 
     84 H84        29.4272   -5.5895   -6.9745 H         1 UNK         0.0717 
     85 H85        29.0672   -3.9278   -7.3393 H         1 UNK         0.0717 
     86 H86        25.6550   -3.6859   -5.1028 H         1 UNK         0.0934 
     87 H87        27.2456   -3.0737   -4.8287 H         1 UNK         0.0934 
     88 H88        26.1999   -2.8705   -7.6795 H         1 UNK         0.0739 
     89 H89        24.6726   -1.7066   -5.5511 H         1 UNK         0.3093 
     90 H90        23.1051    0.8257   -7.4597 H         1 UNK         0.0818 
     91 H91        21.0531   -0.3974   -6.7901 H         1 UNK         0.0819 
     92 H92        21.8538   -1.2375   -8.1066 H         1 UNK         0.0819 
     93 H93        21.9903   -1.8565   -6.4668 H         1 UNK         0.0819 
     94 H94        22.7152   -0.1487   -4.7881 H         1 UNK         0.3041 
     95 H95        25.1470    1.9884   -3.2555 H         1 UNK         0.0784 
     96 H96        23.0423    3.3052   -3.5992 H         1 UNK         0.0793 
     97 H97        22.0846    1.8960   -3.1654 H         1 UNK         0.0793 
     98 H98        23.1470    2.6488   -1.9756 H         1 UNK         0.0793 
     99 H99        23.5289    0.1815   -1.9334 H         1 UNK         0.3024 
    100 H100       24.7758   -1.4863   -0.8032 H         1 UNK         0.1171 
    101 H101       23.0268   -2.5566   -2.2699 H         1 UNK         0.0786 
    102 H102       23.9979   -3.7872   -1.4807 H         1 UNK         0.0786 
    103 H103       24.2773   -3.3991   -3.1751 H         1 UNK         0.0786 
    104 H104       26.9787   -2.1891   -2.4864 H         1 UNK         0.2977 
    105 H105       26.9160   -0.4911   -5.1029 H         1 UNK         0.3127 
    106 H106       29.5560    0.1365   -5.8032 H         1 UNK         0.0770 
    107 H107       27.4197    1.8878   -4.4698 H         1 UNK         0.0814 
    108 H108       29.1475    2.2024   -4.4360 H         1 UNK         0.0814 
    109 H109       28.5010    0.7734   -3.6412 H         1 UNK         0.0814 
    110 H110       26.5137    1.6119   -6.9773 H         1 UNK         0.2983 
    111 H111       27.7198    3.5608   -8.6725 H         1 UNK         0.0947 
    112 H112       25.4473    3.6568   -9.7172 H         1 UNK         0.0806 
    113 H113       25.3473    3.6832   -7.9633 H         1 UNK         0.0806 
    114 H114       24.9732    2.2047   -8.8447 H         1 UNK         0.0806 
    115 H115       26.6263    0.1945   -9.3308 H         1 UNK         0.3000 
    116 H116       27.2387    0.2205  -12.1156 H         1 UNK         0.0850 
    117 H117       26.9514   -2.2589  -11.9221 H         1 UNK         0.0810 
    118 H118       25.6484   -1.3911  -11.1250 H         1 UNK         0.0810 
    119 H119       26.9306   -2.1272  -10.1681 H         1 UNK         0.0810 
    120 H120       29.1043   -1.0066   -9.2934 H         1 UNK         0.3040 
    121 H121       31.3693   -1.8497  -10.8930 H         1 UNK         0.0766 
    122 H122       32.3766   -2.3093   -8.6508 H         1 UNK         0.0812 
    123 H123       30.7517   -2.9671   -8.7624 H         1 UNK         0.0812 
    124 H124       31.0422   -1.4701   -7.8746 H         1 UNK         0.0812 
    125 H125       30.4362    1.1833   -9.5286 H         1 UNK         0.3205 
    126 H126       31.2850    3.2049   -9.3715 H         1 UNK         0.0754 
    127 H127       33.1322    3.9796  -10.8052 H         1 UNK         0.0769 
    128 H128       32.0416    2.9678  -11.7390 H         1 UNK         0.0769 
    129 H129       33.5913    2.3297  -11.1916 H         1 UNK         0.0769 
    130 H130       31.4963    1.8538   -7.2099 H         1 UNK         0.2981 
    131 H131       34.1734    1.6214   -6.1178 H         1 UNK         0.0541 
    132 H132       32.1456    4.4532   -6.5352 H         1 UNK         0.3459 
    133 H133       33.0551    5.4631   -5.4390 H         1 UNK         0.3459 
    134 H134       31.4762    1.5913   -4.6860 H         1 UNK         0.0612 
    135 H135       33.0076    1.2523   -3.9177 H         1 UNK         0.0612 
    136 H136       32.0872   -1.0916   -2.9973 H         1 UNK         0.0624 
    137 H137       30.5790   -0.5419   -3.6828 H         1 UNK         0.0624 
@<TRIPOS>BOND
     1    1    2 1    
     2    1   72 1    
     3    1   73 1    
     4    1   74 1    
     5    2    3 2    
     6    2    4 am   BACKBONE|DICT|INTERRES
     7    4    5 1    
     8    4   75 1    
     9    5    6 1    
    10    5   35 1    
    11    5   76 1    
    12    6    7 1    
    13    6   77 1    
    14    6   78 1    
    15    7    8 1    
    16    8    9 1    
    17    8   79 1    
    18    8   80 1    
    19    9   10 ar   
    20    9   14 ar   
    21   10   11 ar   
    22   10   81 1    
    23   11   12 ar   
    24   11   71 1    
    25   12   13 ar   
    26   12   82 1    
    27   13   14 ar   
    28   13   15 1    
    29   14   83 1    
    30   15   16 1    
    31   15   84 1    
    32   15   85 1    
    33   16   17 1    
    34   17   18 1    
    35   17   86 1    
    36   17   87 1    
    37   18   19 1    
    38   18   37 1    
    39   18   88 1    
    40   19   20 am   BACKBONE|DICT|INTERRES
    41   19   89 1    
    42   20   21 2    
    43   20   22 1    
    44   22   23 1    
    45   22   24 1    
    46   22   90 1    
    47   23   91 1    
    48   23   92 1    
    49   23   93 1    
    50   24   25 am   BACKBONE|DICT|INTERRES
    51   24   94 1    
    52   25   26 2    
    53   25   27 1    
    54   27   28 1    
    55   27   29 1    
    56   27   95 1    
    57   28   96 1    
    58   28   97 1    
    59   28   98 1    
    60   29   30 am   BACKBONE|DICT|INTERRES
    61   29   99 1    
    62   30   31 2    
    63   30   32 1    
    64   32   33 1    
    65   32   34 1    
    66   32  100 1    
    67   33  101 1    
    68   33  102 1    
    69   33  103 1    
    70   34   35 am   BACKBONE|DICT|INTERRES
    71   34  104 1    
    72   35   36 2    
    73   37   38 2    
    74   37   39 am   BACKBONE|DICT|INTERRES
    75   39   40 1    
    76   39  105 1    
    77   40   41 1    
    78   40   42 1    
    79   40  106 1    
    80   41  107 1    
    81   41  108 1    
    82   41  109 1    
    83   42   43 2    
    84   42   44 am   BACKBONE|DICT|INTERRES
    85   44   45 1    
    86   44  110 1    
    87   45   46 1    
    88   45   47 1    
    89   45  111 1    
    90   46  112 1    
    91   46  113 1    
    92   46  114 1    
    93   47   48 2    
    94   47   49 am   BACKBONE|DICT|INTERRES
    95   49   50 1    
    96   49  115 1    
    97   50   51 1    
    98   50   52 1    
    99   50  116 1    
   100   51  117 1    
   101   51  118 1    
   102   51  119 1    
   103   52   53 2    
   104   52   54 am   BACKBONE|DICT|INTERRES
   105   54   55 1    
   106   54  120 1    
   107   55   56 1    
   108   55   57 1    
   109   55  121 1    
   110   56  122 1    
   111   56  123 1    
   112   56  124 1    
   113   57   58 2    
   114   57   59 am   BACKBONE|DICT|INTERRES
   115   59   60 1    
   116   59  125 1    
   117   60   61 1    
   118   60   62 1    
   119   60  126 1    
   120   61  127 1    
   121   61  128 1    
   122   61  129 1    
   123   62   63 2    
   124   62   64 am   BACKBONE|DICT|INTERRES
   125   64   65 1    
   126   64  130 1    
   127   65   66 1    
   128   65   69 1    
   129   65  131 1    
   130   66   67 am   BACKBONE|DICT|INTERRES
   131   66   68 2    
   132   67  132 1    
   133   67  133 1    
   134   69   70 1    
   135   69  134 1    
   136   69  135 1    
   137   70   71 1    
   138   71  136 1    
   139   71  137 1    
@<TRIPOS>SUBSTRUCTURE
     1 UNK         1 GROUP             0       ****    0 ROOT    
