@<TRIPOS>MOLECULE
3R137
137   139    1
SMALL
USER_CHARGES


@<TRIPOS>ATOM
      1 CA         26.2928   -7.7332   -1.3101 C.3       0 UNK        -0.2020 
      2 C          26.2943   -6.2783   -0.8653 C.2       0 UNK         0.4855 
      3 O          25.4811   -5.8938   -0.0241 O.2       0 UNK        -0.5197 
      4 N          27.2082   -5.4700   -1.4150 N.am      1 UNK        -0.4892 
      5 CA         27.3136   -4.0268   -1.1806 C.3       1 UNK         0.0835 
      6 C6         28.6945   -3.4532   -1.6011 C.3       12 UNK        -0.0855 
      7 S7         29.4077   -4.1687   -3.1267 S.3       12 UNK        -0.2931 
      8 C8         31.1303   -3.5862   -3.0324 C.3       12 UNK         0.0378 
      9 C9         31.2353   -2.1151   -3.4021 C.ar      12 UNK        -0.0802 
     10 C10        31.4542   -1.7383   -4.7305 C.ar      12 UNK        -0.0944 
     11 C11        31.5218   -0.3867   -5.0794 C.ar      12 UNK        -0.0787 
     12 C12        31.3798    0.5880   -4.0889 C.ar      12 UNK        -0.0862 
     13 C13        31.1125    0.2238   -2.7672 C.ar      12 UNK        -0.0733 
     14 C14        31.0751   -1.1300   -2.4234 C.ar      12 UNK        -0.0832 
     15 C15        30.7969    1.2870   -1.7231 C.3       12 UNK         0.0240 
     16 S16        29.3907    2.3547   -2.2025 S.3       12 UNK        -0.2522 
     17 C17        28.1035    1.1641   -2.7284 C.3       12 UNK        -0.0967 
     18 CA         27.9379    1.1212   -4.2722 C.3       5 UNK         0.0660 
     19 N          27.3278   -0.1250   -4.7360 N.am      5 UNK        -0.4015 
     20 C          27.4325   -0.5987   -5.9866 C.2       4 UNK         0.4946 
     21 O          28.1195   -0.0751   -6.8650 O.2       4 UNK        -0.5353 
     22 CA         26.5974   -1.8420   -6.3388 C.3       4 UNK         0.0277 
     23 CB         27.3919   -3.1274   -6.0763 C.3       4 UNK        -0.1981 
     24 N          25.3219   -1.8999   -5.6202 N.am      4 UNK        -0.4209 
     25 C          24.3105   -1.0458   -5.8338 C.2       3 UNK         0.4942 
     26 O          24.3369   -0.1592   -6.6847 O.2       3 UNK        -0.5208 
     27 CA         23.0830   -1.1542   -4.9154 C.3       3 UNK         0.0250 
     28 CB         22.0569   -2.1338   -5.5058 C.3       3 UNK        -0.1990 
     29 N          23.3927   -1.5435   -3.5378 N.am      3 UNK        -0.4232 
     30 C          24.2534   -0.9267   -2.7152 C.2       2 UNK         0.4993 
     31 O          24.9358    0.0475   -3.0387 O.2       2 UNK        -0.5286 
     32 CA         24.3922   -1.5004   -1.2941 C.3       2 UNK         0.0209 
     33 CB         23.1894   -2.3677   -0.8560 C.3       2 UNK        -0.1931 
     34 N          25.6405   -2.2455   -1.0824 N.am      2 UNK        -0.4546 
     35 C          26.1261   -3.2644   -1.8107 C.2       1 UNK         0.5154 
     36 O          25.6722   -3.6186   -2.9034 O.2       1 UNK        -0.5181 
     37 C          27.1692    2.3368   -4.8190 C.2       5 UNK         0.5014 
     38 O          27.7968    3.2743   -5.3126 O.2       5 UNK        -0.5248 
     39 N          25.8292    2.2803   -4.7686 N.am      6 UNK        -0.4434 
     40 CA         24.9328    3.3125   -5.2998 C.3       6 UNK         0.0363 
     41 CB         23.4796    2.9757   -4.9315 C.3       6 UNK        -0.1936 
     42 C          25.0764    3.5198   -6.8193 C.2       6 UNK         0.5081 
     43 O          25.0967    4.6634   -7.2750 O.2       6 UNK        -0.5248 
     44 N          25.1956    2.4173   -7.5713 N.am      7 UNK        -0.4718 
     45 CA         25.4177    2.4176   -9.0199 C.3       7 UNK         0.0273 
     46 CB         25.0029    1.0495   -9.5868 C.3       7 UNK        -0.1935 
     47 C          26.8692    2.7318   -9.4257 C.2       7 UNK         0.5018 
     48 O          27.0962    3.0448  -10.5951 O.2       7 UNK        -0.5186 
     49 N          27.8149    2.6141   -8.4793 N.am      8 UNK        -0.4240 
     50 CA         29.2711    2.6902   -8.6570 C.3       8 UNK         0.0235 
     51 CB         29.7117    4.1168   -9.0461 C.3       8 UNK        -0.2000 
     52 C          29.7741    1.6090   -9.6345 C.2       8 UNK         0.4941 
     53 O          30.4536    1.9170  -10.6172 O.2       8 UNK        -0.5273 
     54 N          29.3834    0.3557   -9.3674 N.am      9 UNK        -0.4262 
     55 CA         29.5854   -0.8126  -10.2268 C.3       9 UNK         0.0264 
     56 CB         28.6043   -1.9153   -9.7875 C.3       9 UNK        -0.1955 
     57 C          31.0466   -1.3026  -10.2516 C.2       9 UNK         0.5031 
     58 O          31.3405   -2.3872   -9.7438 O.2       9 UNK        -0.5390 
     59 N          31.9394   -0.4852  -10.8274 N.am      10 UNK        -0.4204 
     60 CA         33.3795   -0.6853  -11.0718 C.3       10 UNK         0.0237 
     61 CB         33.6294   -1.9002  -11.9867 C.3       10 UNK        -0.1985 
     62 C          34.2582   -0.7586   -9.8081 C.2       10 UNK         0.4970 
     63 O          35.3531   -0.1952   -9.8083 O.2       10 UNK        -0.4914 
     64 N          33.7597   -1.4269   -8.7640 N.am      11 UNK        -0.4285 
     65 CA         34.3329   -1.5368   -7.4125 C.3       11 UNK         0.1007 
     66 C          35.6064   -2.4292   -7.3125 C.2       11 UNK         0.5703 
     67 N          35.9358   -3.2275   -8.3212 N.am      11 UNK        -0.7361 
     68 O          36.2922   -2.4258   -6.2926 O.2       11 UNK        -0.4986 
     69 C69        34.5098   -0.1614   -6.6976 C.3       12 UNK        -0.0947 
     70 S70        33.1293    1.0287   -6.8665 S.3       12 UNK        -0.2240 
     71 C71        31.6448    0.0283   -6.5354 C.3       12 UNK         0.0194 
     72 H72        25.3330   -7.9864   -1.7596 H         1 UNK         0.0906 
     73 H73        27.0741   -7.9365   -2.0423 H         1 UNK         0.0906 
     74 H74        26.4520   -8.3880   -0.4538 H         1 UNK         0.0906 
     75 H75        27.8347   -5.8231   -2.1258 H         1 UNK         0.3140 
     76 H76        27.2319   -3.8875   -0.0997 H         1 UNK         0.1085 
     77 H77        29.4046   -3.6403   -0.7940 H         1 UNK         0.0836 
     78 H78        28.6491   -2.3678   -1.7041 H         1 UNK         0.0836 
     79 H79        31.7402   -4.1828   -3.7126 H         1 UNK         0.0731 
     80 H80        31.5317   -3.7618   -2.0332 H         1 UNK         0.0731 
     81 H81        31.5394   -2.4986   -5.4946 H         1 UNK         0.1312 
     82 H82        31.4024    1.6345   -4.3616 H         1 UNK         0.1406 
     83 H83        30.8816   -1.4198   -1.3998 H         1 UNK         0.1631 
     84 H84        31.6790    1.9096   -1.5686 H         1 UNK         0.0717 
     85 H85        30.5697    0.8288   -0.7593 H         1 UNK         0.0717 
     86 H86        28.3676    0.1758   -2.3502 H         1 UNK         0.0934 
     87 H87        27.1632    1.4195   -2.2360 H         1 UNK         0.0934 
     88 H88        28.9281    1.1636   -4.7229 H         1 UNK         0.0739 
     89 H89        26.6687   -0.5600   -4.1031 H         1 UNK         0.3093 
     90 H90        26.3822   -1.7904   -7.4083 H         1 UNK         0.0818 
     91 H91        28.3950   -3.0734   -6.5015 H         1 UNK         0.0819 
     92 H92        26.8975   -3.9947   -6.5137 H         1 UNK         0.0819 
     93 H93        27.4990   -3.3101   -5.0088 H         1 UNK         0.0819 
     94 H94        25.2391   -2.5823   -4.8747 H         1 UNK         0.3041 
     95 H95        22.6211   -0.1668   -4.8712 H         1 UNK         0.0784 
     96 H96        21.7928   -1.8535   -6.5268 H         1 UNK         0.0793 
     97 H97        22.4431   -3.1535   -5.5370 H         1 UNK         0.0793 
     98 H98        21.1338   -2.1407   -4.9258 H         1 UNK         0.0793 
     99 H99        22.9107   -2.3567   -3.1830 H         1 UNK         0.3024 
    100 H100       24.4282   -0.6336   -0.6316 H         1 UNK         0.1171 
    101 H101       23.2598   -2.6213    0.2019 H         1 UNK         0.0786 
    102 H102       22.2455   -1.8371   -0.9911 H         1 UNK         0.0786 
    103 H103       23.1304   -3.3059   -1.4094 H         1 UNK         0.0786 
    104 H104       26.1286   -2.0067   -0.2301 H         1 UNK         0.2977 
    105 H105       25.3980    1.4816   -4.3107 H         1 UNK         0.3127 
    106 H106       25.1970    4.2532   -4.8121 H         1 UNK         0.0770 
    107 H107       23.1398    2.0662   -5.4260 H         1 UNK         0.0814 
    108 H108       22.8072    3.7791   -5.2351 H         1 UNK         0.0814 
    109 H109       23.3602    2.8405   -3.8563 H         1 UNK         0.0814 
    110 H110       25.0803    1.5061   -7.1314 H         1 UNK         0.2983 
    111 H111       24.7802    3.1823   -9.4694 H         1 UNK         0.0947 
    112 H112       25.1147    1.0226  -10.6715 H         1 UNK         0.0806 
    113 H113       23.9595    0.8268   -9.3631 H         1 UNK         0.0806 
    114 H114       25.6125    0.2435   -9.1754 H         1 UNK         0.0806 
    115 H115       27.5077    2.3513   -7.5519 H         1 UNK         0.3000 
    116 H116       29.7093    2.4681   -7.6837 H         1 UNK         0.0850 
    117 H117       30.7993    4.1918   -9.0752 H         1 UNK         0.0810 
    118 H118       29.3545    4.8508   -8.3237 H         1 UNK         0.0810 
    119 H119       29.3406    4.4053  -10.0299 H         1 UNK         0.0810 
    120 H120       28.8658    0.1929   -8.5033 H         1 UNK         0.3040 
    121 H121       29.3245   -0.5300  -11.2489 H         1 UNK         0.0766 
    122 H122       27.5705   -1.5746   -9.8469 H         1 UNK         0.0812 
    123 H123       28.7940   -2.2338   -8.7623 H         1 UNK         0.0812 
    124 H124       28.6929   -2.7959  -10.4251 H         1 UNK         0.0812 
    125 H125       31.5811    0.4331  -11.0843 H         1 UNK         0.3205 
    126 H126       33.7033    0.2032  -11.6164 H         1 UNK         0.0754 
    127 H127       34.6873   -1.9868  -12.2385 H         1 UNK         0.0769 
    128 H128       33.0806   -1.8089  -12.9241 H         1 UNK         0.0769 
    129 H129       33.3315   -2.8368  -11.5144 H         1 UNK         0.0769 
    130 H130       32.8676   -1.8949   -8.9114 H         1 UNK         0.2981 
    131 H131       33.5887   -2.0940   -6.8451 H         1 UNK         0.0541 
    132 H132       35.3766   -3.2467   -9.1586 H         1 UNK         0.3459 
    133 H133       36.7549   -3.8095   -8.2443 H         1 UNK         0.3459 
    134 H134       34.6750   -0.3180   -5.6302 H         1 UNK         0.0612 
    135 H135       35.4066    0.3377   -7.0682 H         1 UNK         0.0612 
    136 H136       30.7714    0.6290   -6.7820 H         1 UNK         0.0624 
    137 H137       31.6025   -0.8332   -7.2004 H         1 UNK         0.0624 
@<TRIPOS>BOND
     1    1    2 1    
     2    1   72 1    
     3    1   73 1    
     4    1   74 1    
     5    2    3 2    
     6    2    4 am   BACKBONE|DICT|INTERRES
     7    4    5 1    
     8    4   75 1    
     9    5    6 1    
    10    5   35 1    
    11    5   76 1    
    12    6    7 1    
    13    6   77 1    
    14    6   78 1    
    15    7    8 1    
    16    8    9 1    
    17    8   79 1    
    18    8   80 1    
    19    9   10 ar   
    20    9   14 ar   
    21   10   11 ar   
    22   10   81 1    
    23   11   12 ar   
    24   11   71 1    
    25   12   13 ar   
    26   12   82 1    
    27   13   14 ar   
    28   13   15 1    
    29   14   83 1    
    30   15   16 1    
    31   15   84 1    
    32   15   85 1    
    33   16   17 1    
    34   17   18 1    
    35   17   86 1    
    36   17   87 1    
    37   18   19 1    
    38   18   37 1    
    39   18   88 1    
    40   19   20 am   BACKBONE|DICT|INTERRES
    41   19   89 1    
    42   20   21 2    
    43   20   22 1    
    44   22   23 1    
    45   22   24 1    
    46   22   90 1    
    47   23   91 1    
    48   23   92 1    
    49   23   93 1    
    50   24   25 am   BACKBONE|DICT|INTERRES
    51   24   94 1    
    52   25   26 2    
    53   25   27 1    
    54   27   28 1    
    55   27   29 1    
    56   27   95 1    
    57   28   96 1    
    58   28   97 1    
    59   28   98 1    
    60   29   30 am   BACKBONE|DICT|INTERRES
    61   29   99 1    
    62   30   31 2    
    63   30   32 1    
    64   32   33 1    
    65   32   34 1    
    66   32  100 1    
    67   33  101 1    
    68   33  102 1    
    69   33  103 1    
    70   34   35 am   BACKBONE|DICT|INTERRES
    71   34  104 1    
    72   35   36 2    
    73   37   38 2    
    74   37   39 am   BACKBONE|DICT|INTERRES
    75   39   40 1    
    76   39  105 1    
    77   40   41 1    
    78   40   42 1    
    79   40  106 1    
    80   41  107 1    
    81   41  108 1    
    82   41  109 1    
    83   42   43 2    
    84   42   44 am   BACKBONE|DICT|INTERRES
    85   44   45 1    
    86   44  110 1    
    87   45   46 1    
    88   45   47 1    
    89   45  111 1    
    90   46  112 1    
    91   46  113 1    
    92   46  114 1    
    93   47   48 2    
    94   47   49 am   BACKBONE|DICT|INTERRES
    95   49   50 1    
    96   49  115 1    
    97   50   51 1    
    98   50   52 1    
    99   50  116 1    
   100   51  117 1    
   101   51  118 1    
   102   51  119 1    
   103   52   53 2    
   104   52   54 am   BACKBONE|DICT|INTERRES
   105   54   55 1    
   106   54  120 1    
   107   55   56 1    
   108   55   57 1    
   109   55  121 1    
   110   56  122 1    
   111   56  123 1    
   112   56  124 1    
   113   57   58 2    
   114   57   59 am   BACKBONE|DICT|INTERRES
   115   59   60 1    
   116   59  125 1    
   117   60   61 1    
   118   60   62 1    
   119   60  126 1    
   120   61  127 1    
   121   61  128 1    
   122   61  129 1    
   123   62   63 2    
   124   62   64 am   BACKBONE|DICT|INTERRES
   125   64   65 1    
   126   64  130 1    
   127   65   66 1    
   128   65   69 1    
   129   65  131 1    
   130   66   67 am   BACKBONE|DICT|INTERRES
   131   66   68 2    
   132   67  132 1    
   133   67  133 1    
   134   69   70 1    
   135   69  134 1    
   136   69  135 1    
   137   70   71 1    
   138   71  136 1    
   139   71  137 1    
@<TRIPOS>SUBSTRUCTURE
     1 UNK         1 GROUP             0       ****    0 ROOT    
