@<TRIPOS>MOLECULE
3R137
137   139    1
SMALL
USER_CHARGES


@<TRIPOS>ATOM
      1 CA         25.3455   -4.8878    2.2767 C.3       0 UNK        -0.2020 
      2 C          26.8081   -4.9695    1.8471 C.2       0 UNK         0.4855 
      3 O          27.3861   -6.0537    1.8820 O.2       0 UNK        -0.5197 
      4 N          27.4549   -3.8668    1.4426 N.am      1 UNK        -0.4892 
      5 CA         26.9121   -2.5089    1.2861 C.3       1 UNK         0.0835 
      6 C6         28.0384   -1.4421    1.2226 C.3       12 UNK        -0.0855 
      7 S7         29.3834   -1.8375    0.0494 S.3       12 UNK        -0.2931 
      8 C8         28.9619   -0.7529   -1.3473 C.3       12 UNK         0.0378 
      9 C9         29.6764   -1.1893   -2.6162 C.ar      12 UNK        -0.0802 
     10 C10        30.6705   -0.3937   -3.1941 C.ar      12 UNK        -0.0944 
     11 C11        31.2833   -0.7874   -4.3886 C.ar      12 UNK        -0.0787 
     12 C12        30.9066   -1.9902   -4.9959 C.ar      12 UNK        -0.0862 
     13 C13        29.9251   -2.7982   -4.4171 C.ar      12 UNK        -0.0733 
     14 C14        29.3106   -2.3875   -3.2332 C.ar      12 UNK        -0.0832 
     15 C15        29.5347   -4.1263   -5.0441 C.3       12 UNK         0.0240 
     16 S16        27.8861   -4.0545   -5.8082 S.3       12 UNK        -0.2522 
     17 C17        28.2462   -3.3167   -7.4365 C.3       12 UNK        -0.0967 
     18 CA         27.5017   -1.9914   -7.7361 C.3       5 UNK         0.0660 
     19 N          26.0934   -2.0194   -7.3303 N.am      5 UNK        -0.4015 
     20 C          25.1442   -1.2316   -7.8502 C.2       4 UNK         0.4946 
     21 O          25.3539   -0.3993   -8.7331 O.2       4 UNK        -0.5353 
     22 CA         23.7318   -1.3772   -7.2618 C.3       4 UNK         0.0277 
     23 CB         23.1021   -2.7229   -7.6590 C.3       4 UNK        -0.1981 
     24 N          23.6940   -1.2203   -5.8042 N.am      4 UNK        -0.4209 
     25 C          24.0331   -0.0980   -5.1533 C.2       3 UNK         0.4942 
     26 O          24.4624    0.9096   -5.7112 O.2       3 UNK        -0.5208 
     27 CA         23.8631   -0.0769   -3.6255 C.3       3 UNK         0.0250 
     28 CB         22.4962    0.5175   -3.2501 C.3       3 UNK        -0.1990 
     29 N          24.0209   -1.3793   -2.9740 N.am      3 UNK        -0.4232 
     30 C          25.1685   -2.0678   -2.9233 C.2       2 UNK         0.4993 
     31 O          26.1957   -1.7296   -3.5122 O.2       2 UNK        -0.5286 
     32 CA         25.1623   -3.3474   -2.0675 C.3       2 UNK         0.0209 
     33 CB         25.5555   -4.5768   -2.9019 C.3       2 UNK        -0.1931 
     34 N          26.0504   -3.2520   -0.9049 N.am      2 UNK        -0.4546 
     35 C          25.9218   -2.3793    0.1064 C.2       1 UNK         0.5154 
     36 O          25.0341   -1.5279    0.1640 O.2       1 UNK        -0.5181 
     37 C          28.2443   -0.7352   -7.2351 C.2       5 UNK         0.5014 
     38 O          29.2010   -0.3110   -7.8900 O.2       5 UNK        -0.5248 
     39 N          27.7652   -0.1254   -6.1390 N.am      6 UNK        -0.4434 
     40 CA         28.2081    1.1891   -5.6720 C.3       6 UNK         0.0363 
     41 CB         27.6443    1.4735   -4.2707 C.3       6 UNK        -0.1936 
     42 C          27.8093    2.3022   -6.6550 C.2       6 UNK         0.5081 
     43 O          28.6675    3.0874   -7.0549 O.2       6 UNK        -0.5248 
     44 N          26.5299    2.3288   -7.0593 N.am      7 UNK        -0.4718 
     45 CA         25.9738    3.2782   -8.0300 C.3       7 UNK         0.0273 
     46 CB         24.4439    3.1401   -8.0727 C.3       7 UNK        -0.1935 
     47 C          26.5696    3.1225   -9.4381 C.2       7 UNK         0.5018 
     48 O          26.8001    4.1284  -10.1099 O.2       7 UNK        -0.5186 
     49 N          26.8460    1.8746   -9.8435 N.am      8 UNK        -0.4240 
     50 CA         27.5623    1.5416  -11.0792 C.3       8 UNK         0.0235 
     51 CB         27.3694    0.0486  -11.3889 C.3       8 UNK        -0.2000 
     52 C          29.0653    1.8843  -11.0367 C.2       8 UNK         0.4941 
     53 O          29.7022    1.8687  -12.0908 O.2       8 UNK        -0.5273 
     54 N          29.6019    2.1711   -9.8394 N.am      9 UNK        -0.4262 
     55 CA         31.0002    2.4847   -9.5328 C.3       9 UNK         0.0264 
     56 CB         31.4138    3.8328  -10.1602 C.3       9 UNK        -0.1955 
     57 C          31.9553    1.3316   -9.8878 C.2       9 UNK         0.5031 
     58 O          33.0236    1.5670  -10.4576 O.2       9 UNK        -0.5390 
     59 N          31.5688    0.0996   -9.5200 N.am      10 UNK        -0.4204 
     60 CA         32.3237   -1.1329   -9.7911 C.3       10 UNK         0.0237 
     61 CB         31.4851   -2.3425   -9.3542 C.3       10 UNK        -0.1985 
     62 C          33.7169   -1.1826   -9.1328 C.2       10 UNK         0.4970 
     63 O          34.5805   -1.9255   -9.6003 O.2       10 UNK        -0.4914 
     64 N          33.9081   -0.3829   -8.0779 N.am      11 UNK        -0.4285 
     65 CA         35.1888   -0.1475   -7.3989 C.3       11 UNK         0.1007 
     66 C          36.1902    0.7242   -8.2144 C.2       11 UNK         0.5703 
     67 N          35.7902    1.3746   -9.3026 N.am      11 UNK        -0.7361 
     68 O          37.3618    0.8053   -7.8532 O.2       11 UNK        -0.4986 
     69 C69        34.9704    0.4415   -5.9792 C.3       12 UNK        -0.0947 
     70 S70        33.9926   -0.6598   -4.9032 S.3       12 UNK        -0.2240 
     71 C71        32.3398    0.0894   -5.0397 C.3       12 UNK         0.0194 
     72 H72        24.6973   -4.7084    1.4198 H         1 UNK         0.0906 
     73 H73        25.1883   -4.1002    3.0123 H         1 UNK         0.0906 
     74 H74        25.0329   -5.8261    2.7348 H         1 UNK         0.0906 
     75 H75        28.4266   -3.9519    1.1753 H         1 UNK         0.3140 
     76 H76        26.3313   -2.2828    2.1824 H         1 UNK         0.1085 
     77 H77        28.4956   -1.3557    2.2096 H         1 UNK         0.0836 
     78 H78        27.6326   -0.4503    1.0110 H         1 UNK         0.0836 
     79 H79        27.8860   -0.7789   -1.5243 H         1 UNK         0.0731 
     80 H80        29.2099    0.2784   -1.0918 H         1 UNK         0.0731 
     81 H81        30.9551    0.5375   -2.7239 H         1 UNK         0.1312 
     82 H82        31.3875   -2.2979   -5.9133 H         1 UNK         0.1406 
     83 H83        28.5347   -2.9981   -2.7927 H         1 UNK         0.1631 
     84 H84        29.5223   -4.8927   -4.2678 H         1 UNK         0.0717 
     85 H85        30.2748   -4.4522   -5.7766 H         1 UNK         0.0717 
     86 H86        29.3215   -3.1988   -7.5651 H         1 UNK         0.0934 
     87 H87        27.9541   -4.0577   -8.1822 H         1 UNK         0.0934 
     88 H88        27.5040   -1.8990   -8.8231 H         1 UNK         0.0739 
     89 H89        25.8606   -2.6611   -6.5855 H         1 UNK         0.3093 
     90 H90        23.1204   -0.5808   -7.6920 H         1 UNK         0.0818 
     91 H91        22.0579   -2.7771   -7.3505 H         1 UNK         0.0819 
     92 H92        23.1241   -2.8589   -8.7413 H         1 UNK         0.0819 
     93 H93        23.6268   -3.5689   -7.2135 H         1 UNK         0.0819 
     94 H94        23.3492   -2.0001   -5.2640 H         1 UNK         0.3041 
     95 H95        24.6369    0.5816   -3.2253 H         1 UNK         0.0784 
     96 H96        22.3627    1.5028   -3.6996 H         1 UNK         0.0793 
     97 H97        21.6732   -0.1110   -3.5926 H         1 UNK         0.0793 
     98 H98        22.3998    0.6414   -2.1712 H         1 UNK         0.0793 
     99 H99        23.2263   -1.7174   -2.4503 H         1 UNK         0.3024 
    100 H100       24.1492   -3.5101   -1.6934 H         1 UNK         0.1171 
    101 H101       24.9512   -4.6496   -3.8071 H         1 UNK         0.0786 
    102 H102       25.4104   -5.4999   -2.3404 H         1 UNK         0.0786 
    103 H103       26.6000   -4.5354   -3.2096 H         1 UNK         0.0786 
    104 H104       26.8171   -3.9074   -0.8626 H         1 UNK         0.2977 
    105 H105       27.0100   -0.5621   -5.6274 H         1 UNK         0.3127 
    106 H106       29.2977    1.1663   -5.6028 H         1 UNK         0.0770 
    107 H107       26.5705    1.6544   -4.2883 H         1 UNK         0.0814 
    108 H108       28.1140    2.3573   -3.8380 H         1 UNK         0.0814 
    109 H109       27.8243    0.6420   -3.5930 H         1 UNK         0.0814 
    110 H110       25.8702    1.6687   -6.6505 H         1 UNK         0.2983 
    111 H111       26.2160    4.2849   -7.6828 H         1 UNK         0.0947 
    112 H112       24.0058    3.8426   -8.7829 H         1 UNK         0.0806 
    113 H113       24.0011    3.3454   -7.0980 H         1 UNK         0.0806 
    114 H114       24.1386    2.1365   -8.3722 H         1 UNK         0.0806 
    115 H115       26.5323    1.0977   -9.2673 H         1 UNK         0.3000 
    116 H116       27.1185    2.1196  -11.8925 H         1 UNK         0.0850 
    117 H117       27.7912   -0.2048  -12.3624 H         1 UNK         0.0810 
    118 H118       26.3139   -0.2236  -11.4118 H         1 UNK         0.0810 
    119 H119       27.8656   -0.5787  -10.6495 H         1 UNK         0.0810 
    120 H120       28.9882    2.1553   -9.0334 H         1 UNK         0.3040 
    121 H121       31.0537    2.5982   -8.4491 H         1 UNK         0.0766 
    122 H122       31.4331    3.7850  -11.2494 H         1 UNK         0.0812 
    123 H123       30.7291    4.6300   -9.8708 H         1 UNK         0.0812 
    124 H124       32.4111    4.1269   -9.8309 H         1 UNK         0.0812 
    125 H125       30.6842   -0.0055   -9.0236 H         1 UNK         0.3205 
    126 H126       32.4740   -1.1912  -10.8710 H         1 UNK         0.0754 
    127 H127       31.9805   -3.2786   -9.6158 H         1 UNK         0.0769 
    128 H128       30.5068   -2.3461   -9.8356 H         1 UNK         0.0769 
    129 H129       31.3326   -2.3439   -8.2758 H         1 UNK         0.0769 
    130 H130       33.1388    0.1939   -7.7793 H         1 UNK         0.2981 
    131 H131       35.6734   -1.1184   -7.2798 H         1 UNK         0.0541 
    132 H132       34.8300    1.3265   -9.6271 H         1 UNK         0.3459 
    133 H133       36.4595    1.9274   -9.8136 H         1 UNK         0.3459 
    134 H134       34.4923    1.4213   -6.0344 H         1 UNK         0.0612 
    135 H135       35.9293    0.6009   -5.4826 H         1 UNK         0.0612 
    136 H136       32.3572    1.0807   -4.5842 H         1 UNK         0.0624 
    137 H137       32.0774    0.2343   -6.0878 H         1 UNK         0.0624 
@<TRIPOS>BOND
     1    1    2 1    
     2    1   72 1    
     3    1   73 1    
     4    1   74 1    
     5    2    3 2    
     6    2    4 am   BACKBONE|DICT|INTERRES
     7    4    5 1    
     8    4   75 1    
     9    5    6 1    
    10    5   35 1    
    11    5   76 1    
    12    6    7 1    
    13    6   77 1    
    14    6   78 1    
    15    7    8 1    
    16    8    9 1    
    17    8   79 1    
    18    8   80 1    
    19    9   10 ar   
    20    9   14 ar   
    21   10   11 ar   
    22   10   81 1    
    23   11   12 ar   
    24   11   71 1    
    25   12   13 ar   
    26   12   82 1    
    27   13   14 ar   
    28   13   15 1    
    29   14   83 1    
    30   15   16 1    
    31   15   84 1    
    32   15   85 1    
    33   16   17 1    
    34   17   18 1    
    35   17   86 1    
    36   17   87 1    
    37   18   19 1    
    38   18   37 1    
    39   18   88 1    
    40   19   20 am   BACKBONE|DICT|INTERRES
    41   19   89 1    
    42   20   21 2    
    43   20   22 1    
    44   22   23 1    
    45   22   24 1    
    46   22   90 1    
    47   23   91 1    
    48   23   92 1    
    49   23   93 1    
    50   24   25 am   BACKBONE|DICT|INTERRES
    51   24   94 1    
    52   25   26 2    
    53   25   27 1    
    54   27   28 1    
    55   27   29 1    
    56   27   95 1    
    57   28   96 1    
    58   28   97 1    
    59   28   98 1    
    60   29   30 am   BACKBONE|DICT|INTERRES
    61   29   99 1    
    62   30   31 2    
    63   30   32 1    
    64   32   33 1    
    65   32   34 1    
    66   32  100 1    
    67   33  101 1    
    68   33  102 1    
    69   33  103 1    
    70   34   35 am   BACKBONE|DICT|INTERRES
    71   34  104 1    
    72   35   36 2    
    73   37   38 2    
    74   37   39 am   BACKBONE|DICT|INTERRES
    75   39   40 1    
    76   39  105 1    
    77   40   41 1    
    78   40   42 1    
    79   40  106 1    
    80   41  107 1    
    81   41  108 1    
    82   41  109 1    
    83   42   43 2    
    84   42   44 am   BACKBONE|DICT|INTERRES
    85   44   45 1    
    86   44  110 1    
    87   45   46 1    
    88   45   47 1    
    89   45  111 1    
    90   46  112 1    
    91   46  113 1    
    92   46  114 1    
    93   47   48 2    
    94   47   49 am   BACKBONE|DICT|INTERRES
    95   49   50 1    
    96   49  115 1    
    97   50   51 1    
    98   50   52 1    
    99   50  116 1    
   100   51  117 1    
   101   51  118 1    
   102   51  119 1    
   103   52   53 2    
   104   52   54 am   BACKBONE|DICT|INTERRES
   105   54   55 1    
   106   54  120 1    
   107   55   56 1    
   108   55   57 1    
   109   55  121 1    
   110   56  122 1    
   111   56  123 1    
   112   56  124 1    
   113   57   58 2    
   114   57   59 am   BACKBONE|DICT|INTERRES
   115   59   60 1    
   116   59  125 1    
   117   60   61 1    
   118   60   62 1    
   119   60  126 1    
   120   61  127 1    
   121   61  128 1    
   122   61  129 1    
   123   62   63 2    
   124   62   64 am   BACKBONE|DICT|INTERRES
   125   64   65 1    
   126   64  130 1    
   127   65   66 1    
   128   65   69 1    
   129   65  131 1    
   130   66   67 am   BACKBONE|DICT|INTERRES
   131   66   68 2    
   132   67  132 1    
   133   67  133 1    
   134   69   70 1    
   135   69  134 1    
   136   69  135 1    
   137   70   71 1    
   138   71  136 1    
   139   71  137 1    
@<TRIPOS>SUBSTRUCTURE
     1 UNK         1 GROUP             0       ****    0 ROOT    
