@<TRIPOS>MOLECULE
3R137
137   139    1
SMALL
USER_CHARGES


@<TRIPOS>ATOM
      1 CA         25.9191   -4.5025    2.4068 C.3       0 UNK        -0.2020 
      2 C          26.2569   -3.5455    1.2741 C.2       0 UNK         0.4855 
      3 O          26.0653   -2.3366    1.4128 O.2       0 UNK        -0.5197 
      4 N          26.7473   -4.0724    0.1453 N.am      1 UNK        -0.4892 
      5 CA         27.1531   -3.3184   -1.0494 C.3       1 UNK         0.0835 
      6 C6         28.2216   -4.0898   -1.8685 C.3       12 UNK        -0.0855 
      7 S7         29.7521   -4.3342   -0.9002 S.3       12 UNK        -0.2931 
      8 C8         31.0340   -4.4359   -2.1973 C.3       12 UNK         0.0378 
      9 C9         31.1351   -3.1901   -3.0736 C.ar      12 UNK        -0.0802 
     10 C10        31.2887   -3.3318   -4.4568 C.ar      12 UNK        -0.0944 
     11 C11        31.3763   -2.2083   -5.2834 C.ar      12 UNK        -0.0787 
     12 C12        31.2986   -0.9347   -4.7182 C.ar      12 UNK        -0.0862 
     13 C13        31.1295   -0.7741   -3.3397 C.ar      12 UNK        -0.0733 
     14 C14        31.0796   -1.9054   -2.5193 C.ar      12 UNK        -0.0832 
     15 C15        30.9798    0.6275   -2.7564 C.3       12 UNK         0.0240 
     16 S16        29.4887    0.8455   -1.7180 S.3       12 UNK        -0.2522 
     17 C17        28.1311    0.0319   -2.6361 C.3       12 UNK        -0.0967 
     18 CA         28.0147    0.3552   -4.1445 C.3       5 UNK         0.0660 
     19 N          27.1755   -0.6254   -4.8325 N.am      5 UNK        -0.4015 
     20 C          27.2940   -0.9519   -6.1259 C.2       4 UNK         0.4946 
     21 O          28.1497   -0.4871   -6.8772 O.2       4 UNK        -0.5353 
     22 CA         26.2655   -1.9413   -6.6945 C.3       4 UNK         0.0277 
     23 CB         26.7688   -3.3854   -6.5431 C.3       4 UNK        -0.1981 
     24 N          24.9431   -1.8033   -6.0791 N.am      4 UNK        -0.4209 
     25 C          24.1632   -0.7206   -6.2185 C.2       3 UNK         0.4942 
     26 O          24.4648    0.2540   -6.9060 O.2       3 UNK        -0.5208 
     27 CA         22.8510   -0.6893   -5.4182 C.3       3 UNK         0.0250 
     28 CB         21.7167   -1.3433   -6.2226 C.3       3 UNK        -0.1990 
     29 N          22.9377   -1.3155   -4.0956 N.am      3 UNK        -0.4232 
     30 C          23.7988   -0.9812   -3.1233 C.2       2 UNK         0.4993 
     31 O          24.6629   -0.1092   -3.2476 O.2       2 UNK        -0.5286 
     32 CA         23.6899   -1.7490   -1.7903 C.3       2 UNK         0.0209 
     33 CB         22.7231   -2.9553   -1.8301 C.3       2 UNK        -0.1931 
     34 N          24.9943   -2.1790   -1.2742 N.am      2 UNK        -0.4546 
     35 C          25.9225   -2.9192   -1.8972 C.2       1 UNK         0.5154 
     36 O          25.8239   -3.2964   -3.0667 O.2       1 UNK        -0.5181 
     37 C          27.5416    1.7906   -4.4207 C.2       5 UNK         0.5014 
     38 O          28.3826    2.6661   -4.6262 O.2       5 UNK        -0.5248 
     39 N          26.2181    2.0012   -4.4820 N.am      6 UNK        -0.4434 
     40 CA         25.6010    3.2742   -4.8666 C.3       6 UNK         0.0363 
     41 CB         24.0784    3.1915   -4.6779 C.3       6 UNK        -0.1936 
     42 C          25.9520    3.6952   -6.3058 C.2       6 UNK         0.5081 
     43 O          26.2649    4.8637   -6.5355 O.2       6 UNK        -0.5248 
     44 N          25.9193    2.7352   -7.2406 N.am      7 UNK        -0.4718 
     45 CA         26.3158    2.9293   -8.6377 C.3       7 UNK         0.0273 
     46 CB         25.6644    1.8323   -9.4963 C.3       7 UNK        -0.1935 
     47 C          27.8405    2.9191   -8.8506 C.2       7 UNK         0.5018 
     48 O          28.2970    3.4422   -9.8677 O.2       7 UNK        -0.5186 
     49 N          28.5838    2.2955   -7.9218 N.am      8 UNK        -0.4240 
     50 CA         30.0094    1.9451   -8.0002 C.3       8 UNK         0.0235 
     51 CB         30.9000    3.2039   -7.9651 C.3       8 UNK        -0.2000 
     52 C          30.2905    1.0286   -9.2074 C.2       8 UNK         0.4941 
     53 O          31.1723    1.3178  -10.0182 O.2       8 UNK        -0.5273 
     54 N          29.4877   -0.0394   -9.3156 N.am      9 UNK        -0.4262 
     55 CA         29.4058   -0.9795  -10.4359 C.3       9 UNK         0.0264 
     56 CB         28.2650   -1.9747  -10.1590 C.3       9 UNK        -0.1955 
     57 C          30.7380   -1.6991  -10.7100 C.2       9 UNK         0.5031 
     58 O          31.0092   -2.7343  -10.1003 O.2       9 UNK        -0.5390 
     59 N          31.5431   -1.1088  -11.6058 N.am      10 UNK        -0.4204 
     60 CA         32.9212   -1.4794  -11.9522 C.3       10 UNK         0.0237 
     61 CB         32.9705   -2.8641  -12.6344 C.3       10 UNK        -0.1985 
     62 C          33.8988   -1.3558  -10.7632 C.2       10 UNK         0.4970 
     63 O          34.8791   -2.1012  -10.7040 O.2       10 UNK        -0.4914 
     64 N          33.6223   -0.4151   -9.8512 N.am      11 UNK        -0.4285 
     65 CA         34.4068   -0.1384   -8.6397 C.3       11 UNK         0.1007 
     66 C          34.8684    1.3430   -8.5967 C.2       11 UNK         0.5703 
     67 N          35.7853    1.6777   -7.6979 N.am      11 UNK        -0.7361 
     68 O          34.4121    2.1947   -9.3578 O.2       11 UNK        -0.4986 
     69 C69        33.6271   -0.5309   -7.3546 C.3       12 UNK        -0.0947 
     70 S70        33.2974   -2.3250   -7.2638 S.3       12 UNK        -0.2240 
     71 C71        31.5424   -2.3712   -6.7865 C.3       12 UNK         0.0194 
     72 H72        26.1355   -5.5380    2.1443 H         1 UNK         0.0906 
     73 H73        26.4973   -4.2502    3.2953 H         1 UNK         0.0906 
     74 H74        24.8607   -4.4294    2.6564 H         1 UNK         0.0906 
     75 H75        26.8726   -5.0730    0.0831 H         1 UNK         0.3140 
     76 H76        27.6110   -2.3839   -0.7175 H         1 UNK         0.1085 
     77 H77        28.4628   -3.5448   -2.7829 H         1 UNK         0.0836 
     78 H78        27.8431   -5.0630   -2.1864 H         1 UNK         0.0836 
     79 H79        30.8325   -5.3184   -2.8068 H         1 UNK         0.0731 
     80 H80        32.0007   -4.6046   -1.7212 H         1 UNK         0.0731 
     81 H81        31.3428   -4.3193   -4.8946 H         1 UNK         0.1312 
     82 H82        31.3489   -0.0654   -5.3579 H         1 UNK         0.1406 
     83 H83        30.9600   -1.7835   -1.4513 H         1 UNK         0.1631 
     84 H84        30.9538    1.3763   -3.5499 H         1 UNK         0.0717 
     85 H85        31.8608    0.8545   -2.1550 H         1 UNK         0.0717 
     86 H86        28.2970   -1.0386   -2.5242 H         1 UNK         0.0934 
     87 H87        27.1908    0.2407   -2.1220 H         1 UNK         0.0934 
     88 H88        29.0012    0.2862   -4.5922 H         1 UNK         0.0739 
     89 H89        26.4032   -1.0114   -4.3037 H         1 UNK         0.3093 
     90 H90        26.1611   -1.7268   -7.7601 H         1 UNK         0.0818 
     91 H91        27.7464   -3.5085   -7.0115 H         1 UNK         0.0819 
     92 H92        26.8752   -3.6711   -5.4962 H         1 UNK         0.0819 
     93 H93        26.0909   -4.0943   -7.0184 H         1 UNK         0.0819 
     94 H94        24.6404   -2.5472   -5.4653 H         1 UNK         0.3041 
     95 H95        22.5909    0.3585   -5.2598 H         1 UNK         0.0784 
     96 H96        21.6181   -0.8793   -7.2053 H         1 UNK         0.0793 
     97 H97        21.8939   -2.4079   -6.3813 H         1 UNK         0.0793 
     98 H98        20.7564   -1.2332   -5.7182 H         1 UNK         0.0793 
     99 H99        22.2735   -2.0515   -3.9035 H         1 UNK         0.3024 
    100 H100       23.2962   -1.0310   -1.0691 H         1 UNK         0.1171 
    101 H101       22.6803   -3.4507   -0.8598 H         1 UNK         0.0786 
    102 H102       21.7041   -2.6467   -2.0670 H         1 UNK         0.0786 
    103 H103       23.0302   -3.7023   -2.5636 H         1 UNK         0.0786 
    104 H104       25.1918   -1.9323   -0.3080 H         1 UNK         0.2977 
    105 H105       25.5918    1.2387   -4.2335 H         1 UNK         0.3127 
    106 H106       25.9863    4.0416   -4.1919 H         1 UNK         0.0770 
    107 H107       23.6266    2.4729   -5.3610 H         1 UNK         0.0814 
    108 H108       23.6114    4.1583   -4.8700 H         1 UNK         0.0814 
    109 H109       23.8170    2.8999   -3.6604 H         1 UNK         0.0814 
    110 H110       25.5671    1.8134   -6.9905 H         1 UNK         0.2983 
    111 H111       25.9418    3.8978   -8.9777 H         1 UNK         0.0947 
    112 H112       26.0084    0.8381   -9.2071 H         1 UNK         0.0806 
    113 H113       25.9035    1.9662  -10.5521 H         1 UNK         0.0806 
    114 H114       24.5781    1.8491   -9.4047 H         1 UNK         0.0806 
    115 H115       28.0886    1.8893   -7.1395 H         1 UNK         0.3000 
    116 H116       30.2321    1.3593   -7.1073 H         1 UNK         0.0850 
    117 H117       30.6875    3.8133   -7.0867 H         1 UNK         0.0810 
    118 H118       30.7598    3.8266   -8.8491 H         1 UNK         0.0810 
    119 H119       31.9555    2.9319   -7.9259 H         1 UNK         0.0810 
    120 H120       28.8603   -0.2188   -8.5325 H         1 UNK         0.3040 
    121 H121       29.1364   -0.4078  -11.3262 H         1 UNK         0.0766 
    122 H122       28.1751   -2.7015  -10.9673 H         1 UNK         0.0812 
    123 H123       27.3056   -1.4645  -10.0730 H         1 UNK         0.0812 
    124 H124       28.4329   -2.5315   -9.2363 H         1 UNK         0.0812 
    125 H125       31.2300   -0.2258  -11.9881 H         1 UNK         0.3205 
    126 H126       33.2541   -0.7434  -12.6852 H         1 UNK         0.0754 
    127 H127       33.9655   -3.0701  -13.0308 H         1 UNK         0.0769 
    128 H128       32.2728   -2.9201  -13.4700 H         1 UNK         0.0769 
    129 H129       32.7267   -3.6674  -11.9386 H         1 UNK         0.0769 
    130 H130       32.8310    0.2045  -10.0018 H         1 UNK         0.2981 
    131 H131       35.3264   -0.7258   -8.6664 H         1 UNK         0.0541 
    132 H132       36.0986    2.6348   -7.6533 H         1 UNK         0.3459 
    133 H133       36.1765    0.9933   -7.0692 H         1 UNK         0.3459 
    134 H134       34.1871   -0.2624   -6.4573 H         1 UNK         0.0612 
    135 H135       32.6893    0.0238   -7.3075 H         1 UNK         0.0612 
    136 H136       30.9824   -1.6036   -7.3222 H         1 UNK         0.0624 
    137 H137       31.1207   -3.3251   -7.1067 H         1 UNK         0.0624 
@<TRIPOS>BOND
     1    1    2 1    
     2    1   72 1    
     3    1   73 1    
     4    1   74 1    
     5    2    3 2    
     6    2    4 am   BACKBONE|DICT|INTERRES
     7    4    5 1    
     8    4   75 1    
     9    5    6 1    
    10    5   35 1    
    11    5   76 1    
    12    6    7 1    
    13    6   77 1    
    14    6   78 1    
    15    7    8 1    
    16    8    9 1    
    17    8   79 1    
    18    8   80 1    
    19    9   10 ar   
    20    9   14 ar   
    21   10   11 ar   
    22   10   81 1    
    23   11   12 ar   
    24   11   71 1    
    25   12   13 ar   
    26   12   82 1    
    27   13   14 ar   
    28   13   15 1    
    29   14   83 1    
    30   15   16 1    
    31   15   84 1    
    32   15   85 1    
    33   16   17 1    
    34   17   18 1    
    35   17   86 1    
    36   17   87 1    
    37   18   19 1    
    38   18   37 1    
    39   18   88 1    
    40   19   20 am   BACKBONE|DICT|INTERRES
    41   19   89 1    
    42   20   21 2    
    43   20   22 1    
    44   22   23 1    
    45   22   24 1    
    46   22   90 1    
    47   23   91 1    
    48   23   92 1    
    49   23   93 1    
    50   24   25 am   BACKBONE|DICT|INTERRES
    51   24   94 1    
    52   25   26 2    
    53   25   27 1    
    54   27   28 1    
    55   27   29 1    
    56   27   95 1    
    57   28   96 1    
    58   28   97 1    
    59   28   98 1    
    60   29   30 am   BACKBONE|DICT|INTERRES
    61   29   99 1    
    62   30   31 2    
    63   30   32 1    
    64   32   33 1    
    65   32   34 1    
    66   32  100 1    
    67   33  101 1    
    68   33  102 1    
    69   33  103 1    
    70   34   35 am   BACKBONE|DICT|INTERRES
    71   34  104 1    
    72   35   36 2    
    73   37   38 2    
    74   37   39 am   BACKBONE|DICT|INTERRES
    75   39   40 1    
    76   39  105 1    
    77   40   41 1    
    78   40   42 1    
    79   40  106 1    
    80   41  107 1    
    81   41  108 1    
    82   41  109 1    
    83   42   43 2    
    84   42   44 am   BACKBONE|DICT|INTERRES
    85   44   45 1    
    86   44  110 1    
    87   45   46 1    
    88   45   47 1    
    89   45  111 1    
    90   46  112 1    
    91   46  113 1    
    92   46  114 1    
    93   47   48 2    
    94   47   49 am   BACKBONE|DICT|INTERRES
    95   49   50 1    
    96   49  115 1    
    97   50   51 1    
    98   50   52 1    
    99   50  116 1    
   100   51  117 1    
   101   51  118 1    
   102   51  119 1    
   103   52   53 2    
   104   52   54 am   BACKBONE|DICT|INTERRES
   105   54   55 1    
   106   54  120 1    
   107   55   56 1    
   108   55   57 1    
   109   55  121 1    
   110   56  122 1    
   111   56  123 1    
   112   56  124 1    
   113   57   58 2    
   114   57   59 am   BACKBONE|DICT|INTERRES
   115   59   60 1    
   116   59  125 1    
   117   60   61 1    
   118   60   62 1    
   119   60  126 1    
   120   61  127 1    
   121   61  128 1    
   122   61  129 1    
   123   62   63 2    
   124   62   64 am   BACKBONE|DICT|INTERRES
   125   64   65 1    
   126   64  130 1    
   127   65   66 1    
   128   65   69 1    
   129   65  131 1    
   130   66   67 am   BACKBONE|DICT|INTERRES
   131   66   68 2    
   132   67  132 1    
   133   67  133 1    
   134   69   70 1    
   135   69  134 1    
   136   69  135 1    
   137   70   71 1    
   138   71  136 1    
   139   71  137 1    
@<TRIPOS>SUBSTRUCTURE
     1 UNK         1 GROUP             0       ****    0 ROOT    
