@<TRIPOS>MOLECULE
3R137
137   139    1
SMALL
USER_CHARGES


@<TRIPOS>ATOM
      1 CA         30.1532   -1.8912    2.0290 C.3       0 UNK        -0.2020 
      2 C          29.4882   -2.0903    0.6755 C.2       0 UNK         0.4855 
      3 O          29.2592   -1.1165   -0.0421 O.2       0 UNK        -0.5197 
      4 N          29.1865   -3.3445    0.3189 N.am      1 UNK        -0.4892 
      5 CA         28.5376   -3.7289   -0.9392 C.3       1 UNK         0.0835 
      6 C6         28.6189   -5.2591   -1.2042 C.3       12 UNK        -0.0855 
      7 S7         30.2790   -5.9790   -0.9354 S.3       12 UNK        -0.2931 
      8 C8         30.9844   -5.9906   -2.6168 C.3       12 UNK         0.0378 
      9 C9         31.1127   -4.5932   -3.2106 C.ar      12 UNK        -0.0802 
     10 C10        31.7602   -3.5760   -2.5043 C.ar      12 UNK        -0.0944 
     11 C11        31.8554   -2.2844   -3.0278 C.ar      12 UNK        -0.0787 
     12 C12        31.2925   -2.0194   -4.2846 C.ar      12 UNK        -0.0862 
     13 C13        30.6803   -3.0367   -5.0266 C.ar      12 UNK        -0.0733 
     14 C14        30.5940   -4.3216   -4.4780 C.ar      12 UNK        -0.0832 
     15 C15        30.1868   -2.7432   -6.4432 C.3       12 UNK         0.0240 
     16 S16        28.7098   -3.6935   -6.9492 S.3       12 UNK        -0.2522 
     17 C17        27.3762   -2.7805   -6.1095 C.3       12 UNK        -0.0967 
     18 CA         26.6215   -1.8466   -7.0894 C.3       5 UNK         0.0660 
     19 N          25.2587   -1.5494   -6.6486 N.am      5 UNK        -0.4015 
     20 C          24.3007   -1.0455   -7.4420 C.2       4 UNK         0.4946 
     21 O          24.4375   -0.8641   -8.6515 O.2       4 UNK        -0.5353 
     22 CA         22.9763   -0.6416   -6.7698 C.3       4 UNK         0.0277 
     23 CB         22.0002   -1.8286   -6.7454 C.3       4 UNK        -0.1981 
     24 N          23.1600   -0.1304   -5.4092 N.am      4 UNK        -0.4209 
     25 C          23.8163    0.9991   -5.1047 C.2       3 UNK         0.4942 
     26 O          24.2683    1.7741   -5.9458 O.2       3 UNK        -0.5208 
     27 CA         24.0649    1.2772   -3.6122 C.3       3 UNK         0.0250 
     28 CB         22.9018    2.0829   -3.0126 C.3       3 UNK        -0.1990 
     29 N          24.2814    0.0586   -2.8230 N.am      3 UNK        -0.4232 
     30 C          25.2869   -0.8068   -3.0146 C.2       2 UNK         0.4993 
     31 O          26.1537   -0.6763   -3.8843 O.2       2 UNK        -0.5286 
     32 CA         25.2713   -2.0673   -2.1479 C.3       2 UNK         0.0209 
     33 CB         24.3758   -3.1479   -2.7827 C.3       2 UNK        -0.1931 
     34 N          26.6320   -2.5805   -2.0039 N.am      2 UNK        -0.4546 
     35 C          27.0670   -3.2644   -0.9395 C.2       1 UNK         0.5154 
     36 O          26.3484   -3.5532    0.0219 O.2       1 UNK        -0.5181 
     37 C          27.3940   -0.5419   -7.3470 C.2       5 UNK         0.5014 
     38 O          28.0051   -0.4052   -8.4056 O.2       5 UNK        -0.5248 
     39 N          27.3149    0.4064   -6.4001 N.am      6 UNK        -0.4434 
     40 CA         27.9317    1.7333   -6.4980 C.3       6 UNK         0.0363 
     41 CB         27.7101    2.5114   -5.1927 C.3       6 UNK        -0.1936 
     42 C          27.4540    2.5458   -7.7150 C.2       6 UNK         0.5081 
     43 O          28.2688    3.2037   -8.3615 O.2       6 UNK        -0.5248 
     44 N          26.1541    2.4575   -8.0259 N.am      7 UNK        -0.4718 
     45 CA         25.5427    3.0516   -9.2161 C.3       7 UNK         0.0273 
     46 CB         24.0128    2.9748   -9.0896 C.3       7 UNK        -0.1935 
     47 C          26.0055    2.4014  -10.5332 C.2       7 UNK         0.5018 
     48 O          26.0888    3.0990  -11.5449 O.2       7 UNK        -0.5186 
     49 N          26.2814    1.0899  -10.5070 N.am      8 UNK        -0.4240 
     50 CA         26.7409    0.3181  -11.6614 C.3       8 UNK         0.0235 
     51 CB         26.4037   -1.1700  -11.4636 C.3       8 UNK        -0.2000 
     52 C          28.2401    0.5178  -11.9311 C.2       8 UNK         0.4941 
     53 O          28.6053    0.9024  -13.0431 O.2       8 UNK        -0.5273 
     54 N          29.0775    0.2485  -10.9222 N.am      9 UNK        -0.4262 
     55 CA         30.5359    0.3095  -10.9908 C.3       9 UNK         0.0264 
     56 CB         31.0928   -0.8405  -11.8578 C.3       9 UNK        -0.1955 
     57 C          31.0823    0.2537   -9.5605 C.2       9 UNK         0.5031 
     58 O          31.2546   -0.8387   -9.0161 O.2       9 UNK        -0.5390 
     59 N          31.3079    1.4305   -8.9644 N.am      10 UNK        -0.4204 
     60 CA         31.7922    1.5882   -7.5923 C.3       10 UNK         0.0237 
     61 CB         31.7411    3.0752   -7.2025 C.3       10 UNK        -0.1985 
     62 C          33.2044    1.0256   -7.3624 C.2       10 UNK         0.4970 
     63 O          34.0518    1.0671   -8.2576 O.2       10 UNK        -0.4914 
     64 N          33.4179    0.5535   -6.1322 N.am      11 UNK        -0.4285 
     65 CA         34.7006    0.1268   -5.5636 C.3       11 UNK         0.1007 
     66 C          35.7190    1.2927   -5.4136 C.2       11 UNK         0.5703 
     67 N          37.0095    0.9862   -5.4041 N.am      11 UNK        -0.7361 
     68 O          35.3565    2.4604   -5.2775 O.2       11 UNK        -0.4986 
     69 C69        34.4838   -0.6324   -4.2218 C.3       12 UNK        -0.0947 
     70 S70        33.2886    0.1865   -3.0991 S.3       12 UNK        -0.2240 
     71 C71        32.5611   -1.2180   -2.1859 C.3       12 UNK         0.0194 
     72 H72        29.5319   -1.2587    2.6627 H         1 UNK         0.0906 
     73 H73        30.3154   -2.8363    2.5472 H         1 UNK         0.0906 
     74 H74        31.1197   -1.4036    1.9033 H         1 UNK         0.0906 
     75 H75        29.3914   -4.1091    0.9462 H         1 UNK         0.3140 
     76 H76        29.0593   -3.2129   -1.7477 H         1 UNK         0.1085 
     77 H77        27.9352   -5.7967   -0.5437 H         1 UNK         0.0836 
     78 H78        28.2891   -5.4844   -2.2203 H         1 UNK         0.0836 
     79 H79        31.9738   -6.4483   -2.5805 H         1 UNK         0.0731 
     80 H80        30.3705   -6.6323   -3.2509 H         1 UNK         0.0731 
     81 H81        32.1758   -3.7902   -1.5288 H         1 UNK         0.1312 
     82 H82        31.3519   -1.0262   -4.7033 H         1 UNK         0.1406 
     83 H83        30.1298   -5.1187   -5.0420 H         1 UNK         0.1631 
     84 H84        29.9879   -1.6780   -6.5689 H         1 UNK         0.0717 
     85 H85        30.9952   -2.9807   -7.1357 H         1 UNK         0.0717 
     86 H86        26.6918   -3.5283   -5.7059 H         1 UNK         0.0934 
     87 H87        27.7715   -2.2436   -5.2453 H         1 UNK         0.0934 
     88 H88        26.5306   -2.3654   -8.0469 H         1 UNK         0.0739 
     89 H89        25.0914   -1.5980   -5.6540 H         1 UNK         0.3093 
     90 H90        22.5327    0.1557   -7.3704 H         1 UNK         0.0818 
     91 H91        21.0286   -1.5356   -6.3471 H         1 UNK         0.0819 
     92 H92        21.8319   -2.2142   -7.7521 H         1 UNK         0.0819 
     93 H93        22.3778   -2.6535   -6.1397 H         1 UNK         0.0819 
     94 H94        22.8008   -0.6952   -4.6537 H         1 UNK         0.3041 
     95 H95        24.9711    1.8812   -3.5377 H         1 UNK         0.0784 
     96 H96        22.7376    3.0048   -3.5727 H         1 UNK         0.0793 
     97 H97        21.9670    1.5210   -3.0290 H         1 UNK         0.0793 
     98 H98        23.1060    2.3667   -1.9800 H         1 UNK         0.0793 
     99 H99        23.6065   -0.1302   -2.0951 H         1 UNK         0.3024 
    100 H100       24.8782   -1.7971   -1.1645 H         1 UNK         0.1171 
    101 H101       24.3277   -4.0391   -2.1565 H         1 UNK         0.0786 
    102 H102       23.3529   -2.7915   -2.9096 H         1 UNK         0.0786 
    103 H103       24.7428   -3.4516   -3.7639 H         1 UNK         0.0786 
    104 H104       27.2720   -2.2996   -2.7361 H         1 UNK         0.2977 
    105 H105       26.8127    0.1932   -5.5426 H         1 UNK         0.3127 
    106 H106       29.0019    1.5764   -6.6154 H         1 UNK         0.0770 
    107 H107       26.6565    2.7392   -5.0332 H         1 UNK         0.0814 
    108 H108       28.2470    3.4607   -5.2127 H         1 UNK         0.0814 
    109 H109       28.0694    1.9526   -4.3282 H         1 UNK         0.0814 
    110 H110       25.5328    1.9715   -7.3837 H         1 UNK         0.2983 
    111 H111       25.8316    4.1044   -9.2511 H         1 UNK         0.0947 
    112 H112       23.5250    3.4328   -9.9511 H         1 UNK         0.0806 
    113 H113       23.6616    3.4992   -8.2006 H         1 UNK         0.0806 
    114 H114       23.6662    1.9424   -9.0269 H         1 UNK         0.0806 
    115 H115       26.1955    0.5928   -9.6297 H         1 UNK         0.3000 
    116 H116       26.1975    0.6622  -12.5445 H         1 UNK         0.0850 
    117 H117       26.7317   -1.7614  -12.3195 H         1 UNK         0.0810 
    118 H118       25.3290   -1.3195  -11.3584 H         1 UNK         0.0810 
    119 H119       26.8833   -1.5853  -10.5770 H         1 UNK         0.0810 
    120 H120       28.6928   -0.0317  -10.0171 H         1 UNK         0.3040 
    121 H121       30.8309    1.2595  -11.4414 H         1 UNK         0.0766 
    122 H122       30.7939   -0.7399  -12.9009 H         1 UNK         0.0812 
    123 H123       30.7492   -1.8134  -11.5042 H         1 UNK         0.0812 
    124 H124       32.1832   -0.8511  -11.8357 H         1 UNK         0.0812 
    125 H125       31.1286    2.2799   -9.4801 H         1 UNK         0.3205 
    126 H126       31.1114    1.0319   -6.9469 H         1 UNK         0.0754 
    127 H127       32.0707    3.2237   -6.1731 H         1 UNK         0.0769 
    128 H128       30.7299    3.4746   -7.2757 H         1 UNK         0.0769 
    129 H129       32.3879    3.6796   -7.8399 H         1 UNK         0.0769 
    130 H130       32.6772    0.6300   -5.4522 H         1 UNK         0.2981 
    131 H131       35.1366   -0.5772   -6.2752 H         1 UNK         0.0541 
    132 H132       37.3212    0.0326   -5.5045 H         1 UNK         0.3459 
    133 H133       37.6866    1.7252   -5.2965 H         1 UNK         0.3459 
    134 H134       35.4247   -0.7798   -3.6885 H         1 UNK         0.0612 
    135 H135       34.1224   -1.6360   -4.4465 H         1 UNK         0.0612 
    136 H136       31.8428   -0.8218   -1.4671 H         1 UNK         0.0624 
    137 H137       33.3587   -1.6793   -1.6012 H         1 UNK         0.0624 
@<TRIPOS>BOND
     1    1    2 1    
     2    1   72 1    
     3    1   73 1    
     4    1   74 1    
     5    2    3 2    
     6    2    4 am   BACKBONE|DICT|INTERRES
     7    4    5 1    
     8    4   75 1    
     9    5    6 1    
    10    5   35 1    
    11    5   76 1    
    12    6    7 1    
    13    6   77 1    
    14    6   78 1    
    15    7    8 1    
    16    8    9 1    
    17    8   79 1    
    18    8   80 1    
    19    9   10 ar   
    20    9   14 ar   
    21   10   11 ar   
    22   10   81 1    
    23   11   12 ar   
    24   11   71 1    
    25   12   13 ar   
    26   12   82 1    
    27   13   14 ar   
    28   13   15 1    
    29   14   83 1    
    30   15   16 1    
    31   15   84 1    
    32   15   85 1    
    33   16   17 1    
    34   17   18 1    
    35   17   86 1    
    36   17   87 1    
    37   18   19 1    
    38   18   37 1    
    39   18   88 1    
    40   19   20 am   BACKBONE|DICT|INTERRES
    41   19   89 1    
    42   20   21 2    
    43   20   22 1    
    44   22   23 1    
    45   22   24 1    
    46   22   90 1    
    47   23   91 1    
    48   23   92 1    
    49   23   93 1    
    50   24   25 am   BACKBONE|DICT|INTERRES
    51   24   94 1    
    52   25   26 2    
    53   25   27 1    
    54   27   28 1    
    55   27   29 1    
    56   27   95 1    
    57   28   96 1    
    58   28   97 1    
    59   28   98 1    
    60   29   30 am   BACKBONE|DICT|INTERRES
    61   29   99 1    
    62   30   31 2    
    63   30   32 1    
    64   32   33 1    
    65   32   34 1    
    66   32  100 1    
    67   33  101 1    
    68   33  102 1    
    69   33  103 1    
    70   34   35 am   BACKBONE|DICT|INTERRES
    71   34  104 1    
    72   35   36 2    
    73   37   38 2    
    74   37   39 am   BACKBONE|DICT|INTERRES
    75   39   40 1    
    76   39  105 1    
    77   40   41 1    
    78   40   42 1    
    79   40  106 1    
    80   41  107 1    
    81   41  108 1    
    82   41  109 1    
    83   42   43 2    
    84   42   44 am   BACKBONE|DICT|INTERRES
    85   44   45 1    
    86   44  110 1    
    87   45   46 1    
    88   45   47 1    
    89   45  111 1    
    90   46  112 1    
    91   46  113 1    
    92   46  114 1    
    93   47   48 2    
    94   47   49 am   BACKBONE|DICT|INTERRES
    95   49   50 1    
    96   49  115 1    
    97   50   51 1    
    98   50   52 1    
    99   50  116 1    
   100   51  117 1    
   101   51  118 1    
   102   51  119 1    
   103   52   53 2    
   104   52   54 am   BACKBONE|DICT|INTERRES
   105   54   55 1    
   106   54  120 1    
   107   55   56 1    
   108   55   57 1    
   109   55  121 1    
   110   56  122 1    
   111   56  123 1    
   112   56  124 1    
   113   57   58 2    
   114   57   59 am   BACKBONE|DICT|INTERRES
   115   59   60 1    
   116   59  125 1    
   117   60   61 1    
   118   60   62 1    
   119   60  126 1    
   120   61  127 1    
   121   61  128 1    
   122   61  129 1    
   123   62   63 2    
   124   62   64 am   BACKBONE|DICT|INTERRES
   125   64   65 1    
   126   64  130 1    
   127   65   66 1    
   128   65   69 1    
   129   65  131 1    
   130   66   67 am   BACKBONE|DICT|INTERRES
   131   66   68 2    
   132   67  132 1    
   133   67  133 1    
   134   69   70 1    
   135   69  134 1    
   136   69  135 1    
   137   70   71 1    
   138   71  136 1    
   139   71  137 1    
@<TRIPOS>SUBSTRUCTURE
     1 UNK         1 GROUP             0       ****    0 ROOT    
