@<TRIPOS>MOLECULE
3R216
187   189    1
SMALL
USER_CHARGES


@<TRIPOS>ATOM
      1 CA          5.2763   49.5827   36.9274 C.3       0 UNK        -0.1968 
      2 C           4.1146   48.7716   36.3847 C.2       0 UNK         0.4850 
      3 O           4.1471   47.5436   36.4672 O.2       0 UNK        -0.5351 
      4 N           3.0764   49.4362   35.8569 N.am      1 UNK        -0.4305 
      5 CA          1.8839   48.7952   35.2807 C.3       1 UNK         0.0859 
      6 C6          0.9619   49.7931   34.5376 C.3       17 UNK        -0.0942 
      7 S7          1.8225   50.7132   33.2165 S.3       17 UNK        -0.2554 
      8 C8          1.6620   52.4358   33.7854 C.3       17 UNK         0.0226 
      9 C9          2.5779   52.7309   34.9634 C.ar      17 UNK        -0.0778 
     10 C10         3.9100   53.0918   34.7425 C.ar      17 UNK        -0.0909 
     11 C11         4.7568   53.3650   35.8202 C.ar      17 UNK        -0.0774 
     12 C12         4.2666   53.2728   37.1270 C.ar      17 UNK        -0.0803 
     13 C13         2.9389   52.9028   37.3576 C.ar      17 UNK        -0.0914 
     14 C14         2.0960   52.6478   36.2727 C.ar      17 UNK        -0.1008 
     15 C15         2.4065   52.7617   38.7734 C.3       17 UNK         0.0206 
     16 S16         2.5579   51.0427   39.3478 S.3       17 UNK        -0.2516 
     17 C17         4.1173   51.0913   40.2901 C.3       17 UNK        -0.0853 
     18 CA          3.8571   51.2012   41.8141 C.3       6 UNK         0.0794 
     19 N           3.0593   50.0931   42.3427 N.am      6 UNK        -0.4522 
     20 C           2.2161   50.1856   43.3808 C.2       5 UNK         0.4929 
     21 O           1.9498   51.2416   43.9552 O.2       5 UNK        -0.5075 
     22 CA          1.5592   48.8834   43.8775 C.3       5 UNK         0.0490 
     23 CB          0.1329   48.7484   43.3289 C.3       5 UNK        -0.1933 
     24 N           2.3383   47.6939   43.5242 N.am      5 UNK        -0.4578 
     25 C           3.4461   47.3192   44.1820 C.2       4 UNK         0.4945 
     26 O           3.8359   47.8617   45.2154 O.2       4 UNK        -0.4749 
     27 CA          4.2788   46.1627   43.5983 C.3       4 UNK         0.0407 
     28 CB          4.0200   44.8674   44.3839 C.3       4 UNK        -0.1939 
     29 N           4.0601   45.9080   42.1724 N.am      4 UNK        -0.4294 
     30 C           4.3138   46.7605   41.1699 C.2       3 UNK         0.5066 
     31 O           4.7515   47.9012   41.3344 O.2       3 UNK        -0.5003 
     32 CA          4.0058   46.2696   39.7424 C.3       3 UNK         0.0237 
     33 CB          3.8393   44.7375   39.6296 C.3       3 UNK        -0.1945 
     34 N           2.8453   46.9352   39.1386 N.am      3 UNK        -0.4908 
     35 C           1.6109   47.0758   39.6506 C.2       2 UNK         0.5019 
     36 O           1.3015   46.7269   40.7909 O.2       2 UNK        -0.5052 
     37 CA          0.5355   47.6912   38.7319 C.3       2 UNK         0.0260 
     38 CB         -0.3960   48.6569   39.4835 C.3       2 UNK        -0.1902 
     39 N           1.1320   48.3936   37.5925 N.am      2 UNK        -0.4813 
     40 C           1.0707   47.9871   36.3164 C.2       1 UNK         0.5078 
     41 O           0.4258   47.0071   35.9411 O.2       1 UNK        -0.4989 
     42 C           5.1705   51.2960   42.6079 C.2       6 UNK         0.5040 
     43 O           5.4550   52.3545   43.1703 O.2       6 UNK        -0.5243 
     44 N           5.9224   50.1819   42.6582 N.am      7 UNK        -0.4356 
     45 CA          7.1672   49.9658   43.4103 C.3       7 UNK         0.0239 
     46 CB          6.8429   49.6527   44.8866 C.3       7 UNK        -0.1984 
     47 C           8.1869   51.1080   43.2393 C.2       7 UNK         0.5040 
     48 O           8.8254   51.1967   42.1903 O.2       7 UNK        -0.5173 
     49 N           8.2887   51.9886   44.2446 N.am      8 UNK        -0.4746 
     50 CA          9.1378   53.1824   44.2511 C.3       8 UNK         0.0380 
     51 CB          8.9919   53.9079   45.5972 C.3       8 UNK        -0.1820 
     52 C           8.8631   54.1516   43.0874 C.2       8 UNK         0.5109 
     53 O           9.8071   54.7633   42.5886 O.2       8 UNK        -0.5245 
     54 N           7.6017   54.2401   42.6379 N.am      9 UNK        -0.4350 
     55 CA          7.2088   55.0311   41.4683 C.3       9 UNK         0.0276 
     56 CB          5.6788   55.1702   41.4141 C.3       9 UNK        -0.1937 
     57 C           7.7397   54.4414   40.1521 C.2       9 UNK         0.4994 
     58 O           8.0436   55.2030   39.2359 O.2       9 UNK        -0.5348 
     59 N           7.8656   53.1080   40.0859 N.am      10 UNK        -0.4390 
     60 CA          8.4605   52.4049   38.9507 C.3       10 UNK         0.0273 
     61 CB          7.9774   50.9481   38.9173 C.3       10 UNK        -0.1948 
     62 C           9.9917   52.4842   38.9812 C.2       10 UNK         0.5002 
     63 O          10.6061   52.6553   37.9292 O.2       10 UNK        -0.5340 
     64 N          10.5824   52.4030   40.1825 N.am      11 UNK        -0.4376 
     65 CA         12.0155   52.6031   40.4140 C.3       11 UNK         0.0268 
     66 CB         12.3644   52.2767   41.8742 C.3       11 UNK        -0.1976 
     67 C          12.4758   54.0227   40.0393 C.2       11 UNK         0.4951 
     68 O          13.4811   54.1647   39.3429 O.2       11 UNK        -0.5302 
     69 N          11.7057   55.0408   40.4534 N.am      12 UNK        -0.4192 
     70 CA         11.9125   56.4482   40.0926 C.3       12 UNK         0.0210 
     71 CB         10.9370   57.3289   40.8893 C.3       12 UNK        -0.1972 
     72 C          11.7696   56.7238   38.5845 C.2       12 UNK         0.5063 
     73 O          12.4498   57.6088   38.0657 O.2       12 UNK        -0.5170 
     74 N          10.9124   55.9505   37.9060 N.am      13 UNK        -0.4692 
     75 CA         10.7100   55.9859   36.4562 C.3       13 UNK         0.0247 
     76 CB          9.2681   55.5505   36.1506 C.3       13 UNK        -0.1904 
     77 C          11.7179   55.1171   35.6787 C.2       13 UNK         0.5050 
     78 O          11.5713   54.9943   34.4629 O.2       13 UNK        -0.5017 
     79 N          12.6964   54.5108   36.3708 N.am      14 UNK        -0.4888 
     80 CA         13.7456   53.6296   35.8430 C.3       14 UNK         0.0423 
     81 CB         14.7272   54.4211   34.9533 C.3       14 UNK        -0.1779 
     82 C          13.1742   52.3783   35.1481 C.2       14 UNK         0.5096 
     83 O          13.5667   52.0577   34.0246 O.2       14 UNK        -0.5218 
     84 N          12.2283   51.7178   35.8312 N.am      15 UNK        -0.4329 
     85 CA         11.4501   50.5534   35.3893 C.3       15 UNK         0.0248 
     86 CB         12.3544   49.3492   35.0478 C.3       15 UNK        -0.1981 
     87 C          10.4333   50.8827   34.2786 C.2       15 UNK         0.5021 
     88 O           9.9750   49.9721   33.5867 O.2       15 UNK        -0.5161 
     89 N          10.0733   52.1675   34.1586 N.am      16 UNK        -0.4405 
     90 CA          9.0118   52.7091   33.2928 C.3       16 UNK         0.0974 
     91 C           9.3226   52.6529   31.7675 C.2       16 UNK         0.5550 
     92 N          10.5691   52.4530   31.3556 N.am      16 UNK        -0.7316 
     93 O           8.4292   52.8249   30.9415 O.2       16 UNK        -0.5047 
     94 C94         7.5952   52.1628   33.6475 C.3       17 UNK        -0.0866 
     95 S95         7.2380   52.2528   35.4372 S.3       17 UNK        -0.2835 
     96 C96         6.2074   53.7424   35.5784 C.3       17 UNK         0.0331 
     97 H97         5.0205   50.6342   37.0371 H         1 UNK         0.0903 
     98 H98         6.1336   49.5045   36.2597 H         1 UNK         0.0903 
     99 H99         5.5682   49.1998   37.9043 H         1 UNK         0.0903 
    100 H100        3.1014   50.4465   35.7987 H         1 UNK         0.3122 
    101 H101        2.2447   48.0736   34.5444 H         1 UNK         0.0789 
    102 H102        0.4989   50.4877   35.2388 H         1 UNK         0.0701 
    103 H103        0.1356   49.2575   34.0660 H         1 UNK         0.0701 
    104 H104        1.9081   53.1017   32.9568 H         1 UNK         0.0699 
    105 H105        0.6220   52.6447   34.0412 H         1 UNK         0.0699 
    106 H106        4.2899   53.1520   33.7317 H         1 UNK         0.1388 
    107 H107        4.9251   53.4710   37.9618 H         1 UNK         0.1473 
    108 H108        1.0654   52.3739   36.4525 H         1 UNK         0.1399 
    109 H109        1.3536   53.0466   38.8007 H         1 UNK         0.0808 
    110 H110        2.9189   53.4429   39.4545 H         1 UNK         0.0808 
    111 H111        4.6766   50.1862   40.0516 H         1 UNK         0.0899 
    112 H112        4.7296   51.9235   39.9390 H         1 UNK         0.0899 
    113 H113        3.3143   52.1346   41.9809 H         1 UNK         0.0809 
    114 H114        3.2594   49.1792   41.9552 H         1 UNK         0.3203 
    115 H115        1.4873   48.9450   44.9656 H         1 UNK         0.0481 
    116 H116       -0.3549   47.8479   43.7020 H         1 UNK         0.0835 
    117 H117       -0.4820   49.5994   43.6249 H         1 UNK         0.0835 
    118 H118        0.1291   48.7069   42.2426 H         1 UNK         0.0835 
    119 H119        2.0654   47.1968   42.6816 H         1 UNK         0.2959 
    120 H120        5.3300   46.4313   43.7219 H         1 UNK         0.0447 
    121 H121        4.6736   44.0615   44.0496 H         1 UNK         0.0815 
    122 H122        2.9878   44.5310   44.2777 H         1 UNK         0.0815 
    123 H123        4.2074   45.0117   45.4490 H         1 UNK         0.0815 
    124 H124        3.6644   45.0106   41.9331 H         1 UNK         0.2950 
    125 H125        4.8709   46.5513   39.1396 H         1 UNK         0.1059 
    126 H126        2.9449   44.3786   40.1406 H         1 UNK         0.0800 
    127 H127        3.7601   44.4340   38.5855 H         1 UNK         0.0800 
    128 H128        4.6998   44.2115   40.0460 H         1 UNK         0.0800 
    129 H129        2.9975   47.2585   38.1890 H         1 UNK         0.2997 
    130 H130       -0.0731   46.8546   38.3822 H         1 UNK         0.1047 
    131 H131       -0.9603   48.1308   40.2540 H         1 UNK         0.0826 
    132 H132       -1.1241   49.1088   38.8100 H         1 UNK         0.0826 
    133 H133        0.1562   49.4622   39.9669 H         1 UNK         0.0826 
    134 H134        1.6906   49.2078   37.8153 H         1 UNK         0.2978 
    135 H135        5.5865   49.3698   42.1433 H         1 UNK         0.3185 
    136 H136        7.6379   49.0793   42.9823 H         1 UNK         0.0789 
    137 H137        6.2224   50.4223   45.3473 H         1 UNK         0.0800 
    138 H138        6.3077   48.7080   44.9701 H         1 UNK         0.0800 
    139 H139        7.7510   49.5492   45.4825 H         1 UNK         0.0800 
    140 H140        7.6905   51.8544   45.0470 H         1 UNK         0.3085 
    141 H141       10.1707   52.8432   44.1600 H         1 UNK         0.0645 
    142 H142        7.9679   54.2426   45.7675 H         1 UNK         0.0832 
    143 H143        9.6334   54.7896   45.6358 H         1 UNK         0.0832 
    144 H144        9.2794   53.2650   46.4292 H         1 UNK         0.0832 
    145 H145        6.8829   53.6597   43.0656 H         1 UNK         0.3140 
    146 H146        7.6363   56.0301   41.5795 H         1 UNK         0.0788 
    147 H147        5.3792   55.8307   40.5992 H         1 UNK         0.0803 
    148 H148        5.2846   55.5951   42.3373 H         1 UNK         0.0803 
    149 H149        5.1874   54.2115   41.2489 H         1 UNK         0.0803 
    150 H150        7.6831   52.5577   40.9152 H         1 UNK         0.3179 
    151 H151        8.1236   52.8941   38.0371 H         1 UNK         0.0782 
    152 H152        8.3439   50.3694   39.7649 H         1 UNK         0.0801 
    153 H153        6.8903   50.9003   38.9233 H         1 UNK         0.0801 
    154 H154        8.3206   50.4500   38.0095 H         1 UNK         0.0801 
    155 H155       10.0049   52.1777   40.9882 H         1 UNK         0.3192 
    156 H156       12.5505   51.8995   39.7726 H         1 UNK         0.0760 
    157 H157       13.4426   52.3211   42.0330 H         1 UNK         0.0827 
    158 H158       12.0364   51.2739   42.1487 H         1 UNK         0.0827 
    159 H159       11.9074   52.9819   42.5676 H         1 UNK         0.0827 
    160 H160       10.9275   54.8443   41.0802 H         1 UNK         0.3093 
    161 H161       12.9310   56.7166   40.3802 H         1 UNK         0.0775 
    162 H162       11.0804   58.3844   40.6547 H         1 UNK         0.0811 
    163 H163       11.0839   57.2126   41.9633 H         1 UNK         0.0811 
    164 H164        9.8985   57.0812   40.6650 H         1 UNK         0.0811 
    165 H165       10.3763   55.2593   38.4147 H         1 UNK         0.2980 
    166 H166       10.8350   57.0121   36.1042 H         1 UNK         0.1002 
    167 H167        8.5454   56.1621   36.6906 H         1 UNK         0.0826 
    168 H168        9.1007   54.5099   36.4282 H         1 UNK         0.0826 
    169 H169        9.0411   55.6493   35.0888 H         1 UNK         0.0826 
    170 H170       12.7084   54.6347   37.3774 H         1 UNK         0.3001 
    171 H171       14.3043   53.2695   36.7081 H         1 UNK         0.0616 
    172 H172       15.5681   53.7964   34.6498 H         1 UNK         0.0833 
    173 H173       14.2488   54.7843   34.0431 H         1 UNK         0.0833 
    174 H174       15.1374   55.2806   35.4830 H         1 UNK         0.0833 
    175 H175       11.9019   52.1275   36.7069 H         1 UNK         0.3121 
    176 H176       10.8475   50.2679   36.2530 H         1 UNK         0.0824 
    177 H177       13.0633   49.1445   35.8499 H         1 UNK         0.0789 
    178 H178       11.7610   48.4457   34.9033 H         1 UNK         0.0789 
    179 H179       12.9203   49.5114   34.1302 H         1 UNK         0.0789 
    180 H180       10.5450   52.8484   34.7363 H         1 UNK         0.3031 
    181 H181        8.9964   53.7756   33.5158 H         1 UNK         0.0566 
    182 H182       11.3103   52.3248   32.0273 H         1 UNK         0.3460 
    183 H183       10.7682   52.4283   30.3682 H         1 UNK         0.3460 
    184 H184        7.5063   51.1196   33.3406 H         1 UNK         0.0884 
    185 H185        6.8226   52.7006   33.0959 H         1 UNK         0.0884 
    186 H186        6.5750   54.3437   36.4113 H         1 UNK         0.0735 
    187 H187        6.3018   54.3678   34.6896 H         1 UNK         0.0735 
@<TRIPOS>BOND
     1    1    2 1    
     2    1   97 1    
     3    1   98 1    
     4    1   99 1    
     5    2    3 2    
     6    2    4 am   BACKBONE|DICT|INTERRES
     7    4    5 1    
     8    4  100 1    
     9    5    6 1    
    10    5   40 1    
    11    5  101 1    
    12    6    7 1    
    13    6  102 1    
    14    6  103 1    
    15    7    8 1    
    16    8    9 1    
    17    8  104 1    
    18    8  105 1    
    19    9   10 ar   
    20    9   14 ar   
    21   10   11 ar   
    22   10  106 1    
    23   11   12 ar   
    24   11   96 1    
    25   12   13 ar   
    26   12  107 1    
    27   13   14 ar   
    28   13   15 1    
    29   14  108 1    
    30   15   16 1    
    31   15  109 1    
    32   15  110 1    
    33   16   17 1    
    34   17   18 1    
    35   17  111 1    
    36   17  112 1    
    37   18   19 1    
    38   18   42 1    
    39   18  113 1    
    40   19   20 am   BACKBONE|DICT|INTERRES
    41   19  114 1    
    42   20   21 2    
    43   20   22 1    
    44   22   23 1    
    45   22   24 1    
    46   22  115 1    
    47   23  116 1    
    48   23  117 1    
    49   23  118 1    
    50   24   25 am   BACKBONE|DICT|INTERRES
    51   24  119 1    
    52   25   26 2    
    53   25   27 1    
    54   27   28 1    
    55   27   29 1    
    56   27  120 1    
    57   28  121 1    
    58   28  122 1    
    59   28  123 1    
    60   29   30 am   BACKBONE|DICT|INTERRES
    61   29  124 1    
    62   30   31 2    
    63   30   32 1    
    64   32   33 1    
    65   32   34 1    
    66   32  125 1    
    67   33  126 1    
    68   33  127 1    
    69   33  128 1    
    70   34   35 am   BACKBONE|DICT|INTERRES
    71   34  129 1    
    72   35   36 2    
    73   35   37 1    
    74   37   38 1    
    75   37   39 1    
    76   37  130 1    
    77   38  131 1    
    78   38  132 1    
    79   38  133 1    
    80   39   40 am   BACKBONE|DICT|INTERRES
    81   39  134 1    
    82   40   41 2    
    83   42   43 2    
    84   42   44 am   BACKBONE|DICT|INTERRES
    85   44   45 1    
    86   44  135 1    
    87   45   46 1    
    88   45   47 1    
    89   45  136 1    
    90   46  137 1    
    91   46  138 1    
    92   46  139 1    
    93   47   48 2    
    94   47   49 am   BACKBONE|DICT|INTERRES
    95   49   50 1    
    96   49  140 1    
    97   50   51 1    
    98   50   52 1    
    99   50  141 1    
   100   51  142 1    
   101   51  143 1    
   102   51  144 1    
   103   52   53 2    
   104   52   54 am   BACKBONE|DICT|INTERRES
   105   54   55 1    
   106   54  145 1    
   107   55   56 1    
   108   55   57 1    
   109   55  146 1    
   110   56  147 1    
   111   56  148 1    
   112   56  149 1    
   113   57   58 2    
   114   57   59 am   BACKBONE|DICT|INTERRES
   115   59   60 1    
   116   59  150 1    
   117   60   61 1    
   118   60   62 1    
   119   60  151 1    
   120   61  152 1    
   121   61  153 1    
   122   61  154 1    
   123   62   63 2    
   124   62   64 am   BACKBONE|DICT|INTERRES
   125   64   65 1    
   126   64  155 1    
   127   65   66 1    
   128   65   67 1    
   129   65  156 1    
   130   66  157 1    
   131   66  158 1    
   132   66  159 1    
   133   67   68 2    
   134   67   69 am   BACKBONE|DICT|INTERRES
   135   69   70 1    
   136   69  160 1    
   137   70   71 1    
   138   70   72 1    
   139   70  161 1    
   140   71  162 1    
   141   71  163 1    
   142   71  164 1    
   143   72   73 2    
   144   72   74 am   BACKBONE|DICT|INTERRES
   145   74   75 1    
   146   74  165 1    
   147   75   76 1    
   148   75   77 1    
   149   75  166 1    
   150   76  167 1    
   151   76  168 1    
   152   76  169 1    
   153   77   78 2    
   154   77   79 am   BACKBONE|DICT|INTERRES
   155   79   80 1    
   156   79  170 1    
   157   80   81 1    
   158   80   82 1    
   159   80  171 1    
   160   81  172 1    
   161   81  173 1    
   162   81  174 1    
   163   82   83 2    
   164   82   84 am   BACKBONE|DICT|INTERRES
   165   84   85 1    
   166   84  175 1    
   167   85   86 1    
   168   85   87 1    
   169   85  176 1    
   170   86  177 1    
   171   86  178 1    
   172   86  179 1    
   173   87   88 2    
   174   87   89 am   BACKBONE|DICT|INTERRES
   175   89   90 1    
   176   89  180 1    
   177   90   91 1    
   178   90   94 1    
   179   90  181 1    
   180   91   92 am   BACKBONE|DICT|INTERRES
   181   91   93 2    
   182   92  182 1    
   183   92  183 1    
   184   94   95 1    
   185   94  184 1    
   186   94  185 1    
   187   95   96 1    
   188   96  186 1    
   189   96  187 1    
@<TRIPOS>SUBSTRUCTURE
     1 UNK         1 GROUP             0       ****    0 ROOT    
