@<TRIPOS>MOLECULE
3R216
187   189    1
SMALL
USER_CHARGES


@<TRIPOS>ATOM
      1 CA         -0.6423   54.0292   38.7557 C.3       0 UNK        -0.1968 
      2 C           0.3429   52.9139   39.0677 C.2       0 UNK         0.4850 
      3 O           0.6213   52.6550   40.2393 O.2       0 UNK        -0.5351 
      4 N           0.8622   52.2366   38.0335 N.am      1 UNK        -0.4305 
      5 CA          1.8596   51.1640   38.1479 C.3       1 UNK         0.0859 
      6 C6          2.3768   50.6862   36.7757 C.3       17 UNK        -0.0942 
      7 S7          3.2749   51.9874   35.8708 S.3       17 UNK        -0.2554 
      8 C8          3.9288   51.0350   34.4626 C.3       17 UNK         0.0226 
      9 C9          4.9862   50.0276   34.8937 C.ar      17 UNK        -0.0778 
     10 C10         6.3189   50.4250   35.0346 C.ar      17 UNK        -0.0909 
     11 C11         7.2962   49.5014   35.4174 C.ar      17 UNK        -0.0774 
     12 C12         6.9254   48.1827   35.6938 C.ar      17 UNK        -0.0803 
     13 C13         5.5947   47.7759   35.5697 C.ar      17 UNK        -0.0914 
     14 C14         4.6336   48.6977   35.1475 C.ar      17 UNK        -0.1008 
     15 C15         5.1970   46.3400   35.8810 C.3       17 UNK         0.0206 
     16 S16         4.4878   46.1731   37.5522 S.3       17 UNK        -0.2516 
     17 C17         5.9222   46.5526   38.6169 C.3       17 UNK        -0.0853 
     18 CA          5.7299   47.8837   39.3906 C.3       6 UNK         0.0794 
     19 N           4.6164   47.8458   40.3552 N.am      6 UNK        -0.4522 
     20 C           4.4760   47.0642   41.4368 C.2       5 UNK         0.4929 
     21 O           5.2878   46.1953   41.7619 O.2       5 UNK        -0.5075 
     22 CA          3.2565   47.3430   42.3370 C.3       5 UNK         0.0490 
     23 CB          3.4088   46.7421   43.7493 C.3       5 UNK        -0.1933 
     24 N           2.9223   48.7677   42.4278 N.am      5 UNK        -0.4578 
     25 C           3.7094   49.7840   42.8163 C.2       4 UNK         0.4945 
     26 O           4.8833   49.6485   43.1660 O.2       4 UNK        -0.4749 
     27 CA          3.0990   51.2020   42.7656 C.3       4 UNK         0.0407 
     28 CB          3.7309   52.0117   41.6230 C.3       4 UNK        -0.1939 
     29 N           1.6467   51.2076   42.5736 N.am      4 UNK        -0.4294 
     30 C           0.7346   50.8453   43.4862 C.2       3 UNK         0.5066 
     31 O           1.0006   50.5516   44.6515 O.2       3 UNK        -0.5003 
     32 CA         -0.7155   50.7451   42.9872 C.3       3 UNK         0.0237 
     33 CB         -1.4213   52.1080   43.0715 C.3       3 UNK        -0.1945 
     34 N          -0.7771   50.2401   41.6110 N.am      3 UNK        -0.4908 
     35 C          -0.5893   48.9568   41.2699 C.2       2 UNK         0.5019 
     36 O          -0.4086   48.0540   42.0851 O.2       2 UNK        -0.5052 
     37 CA         -0.5647   48.6295   39.7677 C.3       2 UNK         0.0260 
     38 CB         -1.9881   48.3753   39.2474 C.3       2 UNK        -0.1902 
     39 N           0.0659   49.6847   38.9710 N.am      2 UNK        -0.4813 
     40 C           1.3803   49.9521   38.9732 C.2       1 UNK         0.5078 
     41 O           2.2104   49.2955   39.6021 O.2       1 UNK        -0.4989 
     42 C           7.0679   48.3693   39.9999 C.2       6 UNK         0.5040 
     43 O           7.7510   49.1870   39.3818 O.2       6 UNK        -0.5243 
     44 N           7.4215   47.8802   41.1949 N.am      7 UNK        -0.4356 
     45 CA          8.6602   48.1668   41.9192 C.3       7 UNK         0.0239 
     46 CB          8.6993   47.3406   43.2144 C.3       7 UNK        -0.1984 
     47 C           8.8675   49.6577   42.2192 C.2       7 UNK         0.5040 
     48 O           9.9448   50.1841   41.9372 O.2       7 UNK        -0.5173 
     49 N           7.8337   50.3314   42.7459 N.am      8 UNK        -0.4746 
     50 CA          7.9051   51.7676   43.0273 C.3       8 UNK         0.0380 
     51 CB          6.8551   52.1805   44.0694 C.3       8 UNK        -0.1820 
     52 C           7.8346   52.6285   41.7540 C.2       8 UNK         0.5109 
     53 O           8.3631   53.7378   41.7651 O.2       8 UNK        -0.5245 
     54 N           7.2453   52.0999   40.6692 N.am      9 UNK        -0.4350 
     55 CA          7.2431   52.7363   39.3473 C.3       9 UNK         0.0276 
     56 CB          6.1982   52.0802   38.4281 C.3       9 UNK        -0.1937 
     57 C           8.6415   52.7154   38.7101 C.2       9 UNK         0.4994 
     58 O           9.0504   53.7217   38.1295 O.2       9 UNK        -0.5348 
     59 N           9.3665   51.5981   38.8795 N.am      10 UNK        -0.4390 
     60 CA         10.7842   51.4746   38.5329 C.3       10 UNK         0.0273 
     61 CB         11.2477   50.0136   38.6752 C.3       10 UNK        -0.1948 
     62 C          11.6704   52.4011   39.3820 C.2       10 UNK         0.5002 
     63 O          12.5312   53.0809   38.8246 O.2       10 UNK        -0.5340 
     64 N          11.4349   52.4326   40.7038 N.am      11 UNK        -0.4376 
     65 CA         12.1649   53.2808   41.6551 C.3       11 UNK         0.0268 
     66 CB         11.7782   52.9142   43.0960 C.3       11 UNK        -0.1976 
     67 C          11.9648   54.7874   41.4108 C.2       11 UNK         0.4951 
     68 O          12.9319   55.5449   41.4986 O.2       11 UNK        -0.5302 
     69 N          10.7286   55.1920   41.0855 N.am      12 UNK        -0.4192 
     70 CA         10.3723   56.5591   40.6918 C.3       12 UNK         0.0210 
     71 CB          8.8467   56.7283   40.7885 C.3       12 UNK        -0.1972 
     72 C          10.8540   56.9402   39.2794 C.2       12 UNK         0.5063 
     73 O          10.8301   58.1256   38.9464 O.2       12 UNK        -0.5170 
     74 N          11.2587   55.9433   38.4782 N.am      13 UNK        -0.4692 
     75 CA         11.6658   56.0314   37.0736 C.3       13 UNK         0.0247 
     76 CB         12.9666   56.8477   36.9191 C.3       13 UNK        -0.1904 
     77 C          10.5252   56.5194   36.1617 C.2       13 UNK         0.5050 
     78 O          10.7595   57.3136   35.2492 O.2       13 UNK        -0.5017 
     79 N           9.3065   56.0172   36.4132 N.am      14 UNK        -0.4888 
     80 CA          8.1314   56.2237   35.5574 C.3       14 UNK         0.0423 
     81 CB          6.8689   55.7742   36.3094 C.3       14 UNK        -0.1779 
     82 C           8.2632   55.4724   34.2192 C.2       14 UNK         0.5096 
     83 O           7.7545   55.9350   33.1978 O.2       14 UNK        -0.5218 
     84 N           8.9843   54.3500   34.2641 N.am      15 UNK        -0.4329 
     85 CA          9.4875   53.5472   33.1596 C.3       15 UNK         0.0248 
     86 CB          8.3557   52.7211   32.5125 C.3       15 UNK        -0.1981 
     87 C          10.6030   52.6701   33.7518 C.2       15 UNK         0.5021 
     88 O          11.0140   52.9002   34.8938 O.2       15 UNK        -0.5161 
     89 N          11.0476   51.6641   32.9914 N.am      16 UNK        -0.4405 
     90 CA         11.9832   50.6115   33.4326 C.3       16 UNK         0.0974 
     91 C          13.4505   51.0866   33.6645 C.2       16 UNK         0.5550 
     92 N          13.8440   52.2678   33.2037 N.am      16 UNK        -0.7316 
     93 O          14.2584   50.3593   34.2376 O.2       16 UNK        -0.5047 
     94 C94        11.4342   49.7681   34.6243 C.3       17 UNK        -0.0866 
     95 S95         9.7807   49.0657   34.2945 S.3       17 UNK        -0.2835 
     96 C96         8.7535   49.9151   35.5391 C.3       17 UNK         0.0331 
     97 H97        -0.2654   54.9771   39.1385 H         1 UNK         0.0903 
     98 H98        -0.8107   54.1379   37.6845 H         1 UNK         0.0903 
     99 H99        -1.6008   53.8263   39.2324 H         1 UNK         0.0903 
    100 H100        0.6115   52.4971   37.0902 H         1 UNK         0.3122 
    101 H101        2.7076   51.5895   38.6839 H         1 UNK         0.0789 
    102 H102        3.0618   49.8514   36.9248 H         1 UNK         0.0701 
    103 H103        1.5600   50.3148   36.1539 H         1 UNK         0.0701 
    104 H104        3.1065   50.5321   33.9513 H         1 UNK         0.0699 
    105 H105        4.3578   51.7290   33.7382 H         1 UNK         0.0699 
    106 H106        6.5884   51.4544   34.8465 H         1 UNK         0.1388 
    107 H107        7.6830   47.4730   35.9963 H         1 UNK         0.1473 
    108 H108        3.6041   48.3838   35.0404 H         1 UNK         0.1399 
    109 H109        6.0525   45.6704   35.7795 H         1 UNK         0.0808 
    110 H110        4.4603   46.0002   35.1514 H         1 UNK         0.0808 
    111 H111        6.0714   45.7182   39.3033 H         1 UNK         0.0899 
    112 H112        6.8241   46.5843   38.0052 H         1 UNK         0.0899 
    113 H113        5.4502   48.6460   38.6607 H         1 UNK         0.0809 
    114 H114        3.8541   48.4918   40.1609 H         1 UNK         0.3203 
    115 H115        2.4044   46.8600   41.8569 H         1 UNK         0.0481 
    116 H116        3.5369   45.6600   43.7038 H         1 UNK         0.0835 
    117 H117        2.5268   46.9373   44.3591 H         1 UNK         0.0835 
    118 H118        4.2749   47.1515   44.2705 H         1 UNK         0.0835 
    119 H119        1.9949   49.0079   42.1058 H         1 UNK         0.2959 
    120 H120        3.3191   51.6998   43.7117 H         1 UNK         0.0447 
    121 H121        3.2391   52.9757   41.4898 H         1 UNK         0.0815 
    122 H122        3.6758   51.4709   40.6808 H         1 UNK         0.0815 
    123 H123        4.7815   52.2144   41.8102 H         1 UNK         0.0815 
    124 H124        1.3090   51.5106   41.6635 H         1 UNK         0.2950 
    125 H125       -1.2435   50.0460   43.6403 H         1 UNK         0.1059 
    126 H126       -1.4124   52.4874   44.0942 H         1 UNK         0.0800 
    127 H127       -0.9382   52.8570   42.4430 H         1 UNK         0.0800 
    128 H128       -2.4643   52.0338   42.7633 H         1 UNK         0.0800 
    129 H129       -0.8518   50.9313   40.8767 H         1 UNK         0.2997 
    130 H130        0.0155   47.7121   39.6406 H         1 UNK         0.1047 
    131 H131       -2.6169   49.2623   39.3342 H         1 UNK         0.0826 
    132 H132       -2.4719   47.5771   39.8123 H         1 UNK         0.0826 
    133 H133       -1.9797   48.0694   38.2011 H         1 UNK         0.0826 
    134 H134       -0.5424   50.2724   38.4192 H         1 UNK         0.2978 
    135 H135        6.7811   47.2093   41.6164 H         1 UNK         0.3185 
    136 H136        9.4881   47.8450   41.2839 H         1 UNK         0.0789 
    137 H137        9.6170   47.5316   43.7728 H         1 UNK         0.0800 
    138 H138        8.6663   46.2715   43.0032 H         1 UNK         0.0800 
    139 H139        7.8609   47.5775   43.8709 H         1 UNK         0.0800 
    140 H140        6.9561   49.8576   42.9386 H         1 UNK         0.3085 
    141 H141        8.8753   51.9637   43.4851 H         1 UNK         0.0645 
    142 H142        5.8386   51.9929   43.7379 H         1 UNK         0.0832 
    143 H143        6.9302   53.2454   44.2938 H         1 UNK         0.0832 
    144 H144        7.0002   51.6433   45.0066 H         1 UNK         0.0832 
    145 H145        6.8968   51.1545   40.7280 H         1 UNK         0.3140 
    146 H146        6.9588   53.7827   39.4792 H         1 UNK         0.0788 
    147 H147        6.4211   51.0344   38.2224 H         1 UNK         0.0803 
    148 H148        6.1568   52.5874   37.4639 H         1 UNK         0.0803 
    149 H149        5.1990   52.1340   38.8579 H         1 UNK         0.0803 
    150 H150        8.9203   50.7884   39.3023 H         1 UNK         0.3179 
    151 H151       10.8943   51.7715   37.4877 H         1 UNK         0.0782 
    152 H152       12.2784   49.9028   38.3358 H         1 UNK         0.0801 
    153 H153       10.6410   49.3287   38.0865 H         1 UNK         0.0801 
    154 H154       11.2111   49.6725   39.7094 H         1 UNK         0.0801 
    155 H155       10.7544   51.7832   41.0902 H         1 UNK         0.3192 
    156 H156       13.2275   53.0638   41.5273 H         1 UNK         0.0760 
    157 H157       12.4245   53.4257   43.8102 H         1 UNK         0.0827 
    158 H158       11.8744   51.8438   43.2796 H         1 UNK         0.0827 
    159 H159       10.7545   53.2083   43.3241 H         1 UNK         0.0827 
    160 H160        9.9638   54.5213   41.1209 H         1 UNK         0.3093 
    161 H161       10.8399   57.2514   41.3949 H         1 UNK         0.0775 
    162 H162        8.3253   56.0530   40.1084 H         1 UNK         0.0811 
    163 H163        8.5464   57.7454   40.5331 H         1 UNK         0.0811 
    164 H164        8.4882   56.5295   41.7986 H         1 UNK         0.0811 
    165 H165       11.2291   55.0022   38.8510 H         1 UNK         0.2980 
    166 H166       11.8818   55.0084   36.7592 H         1 UNK         0.1002 
    167 H167       13.3398   56.7943   35.8957 H         1 UNK         0.0826 
    168 H168       13.7527   56.4651   37.5700 H         1 UNK         0.0826 
    169 H169       12.8168   57.9016   37.1548 H         1 UNK         0.0826 
    170 H170        9.2140   55.3326   37.1629 H         1 UNK         0.3001 
    171 H171        8.0443   57.2903   35.3406 H         1 UNK         0.0616 
    172 H172        5.9747   55.9503   35.7101 H         1 UNK         0.0833 
    173 H173        6.8988   54.7103   36.5450 H         1 UNK         0.0833 
    174 H174        6.7474   56.3210   37.2444 H         1 UNK         0.0833 
    175 H175        9.4074   54.0941   35.1509 H         1 UNK         0.3121 
    176 H176        9.9302   54.2149   32.4180 H         1 UNK         0.0824 
    177 H177        7.4856   53.3350   32.2802 H         1 UNK         0.0789 
    178 H178        8.6838   52.2731   31.5744 H         1 UNK         0.0789 
    179 H179        8.0286   51.9088   33.1596 H         1 UNK         0.0789 
    180 H180       10.6717   51.5491   32.0617 H         1 UNK         0.3031 
    181 H181       12.0591   49.9346   32.5812 H         1 UNK         0.0566 
    182 H182       13.1941   52.8710   32.7264 H         1 UNK         0.3460 
    183 H183       14.7970   52.5620   33.3470 H         1 UNK         0.3460 
    184 H184       12.1022   48.9307   34.8332 H         1 UNK         0.0884 
    185 H185       11.4116   50.3616   35.5389 H         1 UNK         0.0884 
    186 H186        8.8615   50.9954   35.4372 H         1 UNK         0.0735 
    187 H187        9.1015   49.6620   36.5384 H         1 UNK         0.0735 
@<TRIPOS>BOND
     1    1    2 1    
     2    1   97 1    
     3    1   98 1    
     4    1   99 1    
     5    2    3 2    
     6    2    4 am   BACKBONE|DICT|INTERRES
     7    4    5 1    
     8    4  100 1    
     9    5    6 1    
    10    5   40 1    
    11    5  101 1    
    12    6    7 1    
    13    6  102 1    
    14    6  103 1    
    15    7    8 1    
    16    8    9 1    
    17    8  104 1    
    18    8  105 1    
    19    9   10 ar   
    20    9   14 ar   
    21   10   11 ar   
    22   10  106 1    
    23   11   12 ar   
    24   11   96 1    
    25   12   13 ar   
    26   12  107 1    
    27   13   14 ar   
    28   13   15 1    
    29   14  108 1    
    30   15   16 1    
    31   15  109 1    
    32   15  110 1    
    33   16   17 1    
    34   17   18 1    
    35   17  111 1    
    36   17  112 1    
    37   18   19 1    
    38   18   42 1    
    39   18  113 1    
    40   19   20 am   BACKBONE|DICT|INTERRES
    41   19  114 1    
    42   20   21 2    
    43   20   22 1    
    44   22   23 1    
    45   22   24 1    
    46   22  115 1    
    47   23  116 1    
    48   23  117 1    
    49   23  118 1    
    50   24   25 am   BACKBONE|DICT|INTERRES
    51   24  119 1    
    52   25   26 2    
    53   25   27 1    
    54   27   28 1    
    55   27   29 1    
    56   27  120 1    
    57   28  121 1    
    58   28  122 1    
    59   28  123 1    
    60   29   30 am   BACKBONE|DICT|INTERRES
    61   29  124 1    
    62   30   31 2    
    63   30   32 1    
    64   32   33 1    
    65   32   34 1    
    66   32  125 1    
    67   33  126 1    
    68   33  127 1    
    69   33  128 1    
    70   34   35 am   BACKBONE|DICT|INTERRES
    71   34  129 1    
    72   35   36 2    
    73   35   37 1    
    74   37   38 1    
    75   37   39 1    
    76   37  130 1    
    77   38  131 1    
    78   38  132 1    
    79   38  133 1    
    80   39   40 am   BACKBONE|DICT|INTERRES
    81   39  134 1    
    82   40   41 2    
    83   42   43 2    
    84   42   44 am   BACKBONE|DICT|INTERRES
    85   44   45 1    
    86   44  135 1    
    87   45   46 1    
    88   45   47 1    
    89   45  136 1    
    90   46  137 1    
    91   46  138 1    
    92   46  139 1    
    93   47   48 2    
    94   47   49 am   BACKBONE|DICT|INTERRES
    95   49   50 1    
    96   49  140 1    
    97   50   51 1    
    98   50   52 1    
    99   50  141 1    
   100   51  142 1    
   101   51  143 1    
   102   51  144 1    
   103   52   53 2    
   104   52   54 am   BACKBONE|DICT|INTERRES
   105   54   55 1    
   106   54  145 1    
   107   55   56 1    
   108   55   57 1    
   109   55  146 1    
   110   56  147 1    
   111   56  148 1    
   112   56  149 1    
   113   57   58 2    
   114   57   59 am   BACKBONE|DICT|INTERRES
   115   59   60 1    
   116   59  150 1    
   117   60   61 1    
   118   60   62 1    
   119   60  151 1    
   120   61  152 1    
   121   61  153 1    
   122   61  154 1    
   123   62   63 2    
   124   62   64 am   BACKBONE|DICT|INTERRES
   125   64   65 1    
   126   64  155 1    
   127   65   66 1    
   128   65   67 1    
   129   65  156 1    
   130   66  157 1    
   131   66  158 1    
   132   66  159 1    
   133   67   68 2    
   134   67   69 am   BACKBONE|DICT|INTERRES
   135   69   70 1    
   136   69  160 1    
   137   70   71 1    
   138   70   72 1    
   139   70  161 1    
   140   71  162 1    
   141   71  163 1    
   142   71  164 1    
   143   72   73 2    
   144   72   74 am   BACKBONE|DICT|INTERRES
   145   74   75 1    
   146   74  165 1    
   147   75   76 1    
   148   75   77 1    
   149   75  166 1    
   150   76  167 1    
   151   76  168 1    
   152   76  169 1    
   153   77   78 2    
   154   77   79 am   BACKBONE|DICT|INTERRES
   155   79   80 1    
   156   79  170 1    
   157   80   81 1    
   158   80   82 1    
   159   80  171 1    
   160   81  172 1    
   161   81  173 1    
   162   81  174 1    
   163   82   83 2    
   164   82   84 am   BACKBONE|DICT|INTERRES
   165   84   85 1    
   166   84  175 1    
   167   85   86 1    
   168   85   87 1    
   169   85  176 1    
   170   86  177 1    
   171   86  178 1    
   172   86  179 1    
   173   87   88 2    
   174   87   89 am   BACKBONE|DICT|INTERRES
   175   89   90 1    
   176   89  180 1    
   177   90   91 1    
   178   90   94 1    
   179   90  181 1    
   180   91   92 am   BACKBONE|DICT|INTERRES
   181   91   93 2    
   182   92  182 1    
   183   92  183 1    
   184   94   95 1    
   185   94  184 1    
   186   94  185 1    
   187   95   96 1    
   188   96  186 1    
   189   96  187 1    
@<TRIPOS>SUBSTRUCTURE
     1 UNK         1 GROUP             0       ****    0 ROOT    
