@<TRIPOS>MOLECULE
3R216
187   189    1
SMALL
USER_CHARGES


@<TRIPOS>ATOM
      1 CA         -0.4885   54.0479   38.2389 C.3       0 UNK        -0.1968 
      2 C           0.4649   52.9351   38.6447 C.2       0 UNK         0.4850 
      3 O           0.8128   52.8290   39.8213 O.2       0 UNK        -0.5351 
      4 N           0.8784   52.0926   37.6873 N.am      1 UNK        -0.4305 
      5 CA          1.8302   50.9903   37.8833 C.3       1 UNK         0.0859 
      6 C6          2.1900   50.2829   36.5596 C.3       17 UNK        -0.0942 
      7 S7          3.0472   51.3815   35.3855 S.3       17 UNK        -0.2554 
      8 C8          3.6507   50.1755   34.1603 C.3       17 UNK         0.0226 
      9 C9          4.7428   49.2827   34.7323 C.ar      17 UNK        -0.0778 
     10 C10         6.0636   49.7356   34.7819 C.ar      17 UNK        -0.0909 
     11 C11         7.0685   48.9282   35.3214 C.ar      17 UNK        -0.0774 
     12 C12         6.7460   47.6613   35.8162 C.ar      17 UNK        -0.0803 
     13 C13         5.4284   47.1962   35.7697 C.ar      17 UNK        -0.0914 
     14 C14         4.4345   48.0061   35.2138 C.ar      17 UNK        -0.1008 
     15 C15         5.0753   45.8161   36.3064 C.3       17 UNK         0.0206 
     16 S16         4.3783   45.8936   37.9890 S.3       17 UNK        -0.2516 
     17 C17         5.8377   46.3632   38.9795 C.3       17 UNK        -0.0853 
     18 CA          5.7118   47.7962   39.5594 C.3       6 UNK         0.0794 
     19 N           4.6021   47.9520   40.5185 N.am      6 UNK        -0.4522 
     20 C           4.4321   47.3438   41.7023 C.2       5 UNK         0.4929 
     21 O           5.1989   46.4863   42.1448 O.2       5 UNK        -0.5075 
     22 CA          3.2470   47.8208   42.5634 C.3       5 UNK         0.0490 
     23 CB          3.3923   47.4247   44.0469 C.3       5 UNK        -0.1933 
     24 N           2.9897   49.2598   42.4511 N.am      5 UNK        -0.4578 
     25 C           3.8292   50.2828   42.6797 C.2       4 UNK         0.4945 
     26 O           5.0083   50.1465   43.0122 O.2       4 UNK        -0.4749 
     27 CA          3.2669   51.7060   42.4692 C.3       4 UNK         0.0407 
     28 CB          3.8854   52.3490   41.2195 C.3       4 UNK        -0.1939 
     29 N           1.8106   51.7445   42.3195 N.am      4 UNK        -0.4294 
     30 C           0.9160   51.5414   43.2961 C.2       3 UNK         0.5066 
     31 O           1.2074   51.3970   44.4832 O.2       3 UNK        -0.5003 
     32 CA         -0.5502   51.4258   42.8506 C.3       3 UNK         0.0237 
     33 CB         -1.2015   52.8134   42.7350 C.3       3 UNK        -0.1945 
     34 N          -0.6682   50.7152   41.5722 N.am      3 UNK        -0.4908 
     35 C          -0.5332   49.3885   41.4317 C.2       2 UNK         0.5019 
     36 O          -0.3573   48.6179   42.3738 O.2       2 UNK        -0.5052 
     37 CA         -0.5697   48.8285   40.0004 C.3       2 UNK         0.0260 
     38 CB         -2.0158   48.5269   39.5769 C.3       2 UNK        -0.1902 
     39 N           0.0466   49.7305   39.0246 N.am      2 UNK        -0.4813 
     40 C           1.3664   49.9453   38.9185 C.2       1 UNK         0.5078 
     41 O           2.2120   49.3669   39.6012 O.2       1 UNK        -0.4989 
     42 C           7.0783   48.2902   40.0949 C.2       6 UNK         0.5040 
     43 O           7.8233   48.9257   39.3476 O.2       6 UNK        -0.5243 
     44 N           7.3864   48.0109   41.3677 N.am      7 UNK        -0.4356 
     45 CA          8.6245   48.3564   42.0650 C.3       7 UNK         0.0239 
     46 CB          8.5728   47.8163   43.5032 C.3       7 UNK        -0.1984 
     47 C           8.9259   49.8601   42.0539 C.2       7 UNK         0.5040 
     48 O          10.0022   50.2520   41.6047 O.2       7 UNK        -0.5173 
     49 N           7.9632   50.6842   42.4934 N.am      8 UNK        -0.4746 
     50 CA          8.1043   52.1436   42.4776 C.3       8 UNK         0.0380 
     51 CB          7.1341   52.7923   43.4761 C.3       8 UNK        -0.1820 
     52 C           7.9618   52.7425   41.0684 C.2       8 UNK         0.5109 
     53 O           8.4764   53.8361   40.8348 O.2       8 UNK        -0.5245 
     54 N           7.3251   52.0133   40.1383 N.am      9 UNK        -0.4350 
     55 CA          7.2627   52.3907   38.7241 C.3       9 UNK         0.0276 
     56 CB          6.2297   51.5407   37.9656 C.3       9 UNK        -0.1937 
     57 C           8.6517   52.3127   38.0704 C.2       9 UNK         0.4994 
     58 O           9.0125   53.2077   37.3079 O.2       9 UNK        -0.5348 
     59 N           9.4264   51.2781   38.4220 N.am      10 UNK        -0.4390 
     60 CA         10.8421   51.1686   38.0795 C.3       10 UNK         0.0273 
     61 CB         11.3234   49.7229   38.2971 C.3       10 UNK        -0.1948 
     62 C          11.7112   52.1561   38.8777 C.2       10 UNK         0.5002 
     63 O          12.4771   52.9072   38.2754 O.2       10 UNK        -0.5340 
     64 N          11.6113   52.1094   40.2136 N.am      11 UNK        -0.4376 
     65 CA         12.5485   52.7762   41.1204 C.3       11 UNK         0.0268 
     66 CB         12.4699   52.1299   42.5133 C.3       11 UNK        -0.1976 
     67 C          12.3803   54.2993   41.2317 C.2       11 UNK         0.4951 
     68 O          13.3942   54.9952   41.3104 O.2       11 UNK        -0.5302 
     69 N          11.1347   54.7901   41.2886 N.am      12 UNK        -0.4192 
     70 CA         10.8283   56.1945   41.5735 C.3       12 UNK         0.0210 
     71 CB          9.8026   56.2846   42.7176 C.3       12 UNK        -0.1972 
     72 C          10.3236   56.9300   40.3285 C.2       12 UNK         0.5063 
     73 O          10.8118   58.0242   40.0439 O.2       12 UNK        -0.5170 
     74 N           9.3564   56.3391   39.6117 N.am      13 UNK        -0.4692 
     75 CA          8.7483   56.9566   38.4255 C.3       13 UNK         0.0247 
     76 CB          7.3817   56.3146   38.1423 C.3       13 UNK        -0.1904 
     77 C           9.6422   56.8817   37.1758 C.2       13 UNK         0.5050 
     78 O           9.4712   57.7003   36.2724 O.2       13 UNK        -0.5017 
     79 N          10.5616   55.9049   37.1455 N.am      14 UNK        -0.4888 
     80 CA         11.4844   55.5852   36.0497 C.3       14 UNK         0.0423 
     81 CB         12.5117   56.7181   35.8439 C.3       14 UNK        -0.1779 
     82 C          10.7574   55.1822   34.7507 C.2       14 UNK         0.5096 
     83 O          11.2002   55.5379   33.6566 O.2       14 UNK        -0.5218 
     84 N           9.6537   54.4354   34.8947 N.am      15 UNK        -0.4329 
     85 CA          8.8682   53.8825   33.7880 C.3       15 UNK         0.0248 
     86 CB          7.4671   53.5085   34.2990 C.3       15 UNK        -0.1981 
     87 C           9.5509   52.6700   33.1298 C.2       15 UNK         0.5021 
     88 O           9.2696   52.3819   31.9660 O.2       15 UNK        -0.5161 
     89 N          10.4364   52.0035   33.8780 N.am      16 UNK        -0.4405 
     90 CA         11.3144   50.9212   33.4221 C.3       16 UNK         0.0974 
     91 C          12.7918   51.3614   33.5741 C.2       16 UNK         0.5550 
     92 N          13.6696   50.9058   32.6914 N.am      16 UNK        -0.7316 
     93 O          13.1547   52.0822   34.5022 O.2       16 UNK        -0.5047 
     94 C94        11.0578   49.6071   34.2039 C.3       17 UNK        -0.0866 
     95 S95         9.4059   48.9097   33.8770 S.3       17 UNK        -0.2835 
     96 C96         8.5034   49.4206   35.3696 C.3       17 UNK         0.0331 
     97 H97        -0.7274   54.0142   37.1761 H         1 UNK         0.0903 
     98 H98        -0.0429   55.0180   38.4566 H         1 UNK         0.0903 
     99 H99        -1.4190   53.9669   38.8000 H         1 UNK         0.0903 
    100 H100        0.5726   52.2342   36.7350 H         1 UNK         0.3122 
    101 H101        2.7442   51.4350   38.2784 H         1 UNK         0.0789 
    102 H102        2.8452   49.4383   36.7724 H         1 UNK         0.0701 
    103 H103        1.3004   49.8729   36.0778 H         1 UNK         0.0701 
    104 H104        2.8140   49.5768   33.7970 H         1 UNK         0.0699 
    105 H105        4.0370   50.7162   33.2949 H         1 UNK         0.0699 
    106 H106        6.3073   50.7170   34.4007 H         1 UNK         0.1388 
    107 H107        7.5259   47.0377   36.2308 H         1 UNK         0.1473 
    108 H108        3.4145   47.6483   35.1749 H         1 UNK         0.1399 
    109 H109        5.9484   45.1617   36.2997 H         1 UNK         0.0808 
    110 H110        4.3440   45.3469   35.6466 H         1 UNK         0.0808 
    111 H111        5.9637   45.6285   39.7760 H         1 UNK         0.0899 
    112 H112        6.7310   46.2728   38.3601 H         1 UNK         0.0899 
    113 H113        5.4658   48.4610   38.7294 H         1 UNK         0.0809 
    114 H114        3.8728   48.6031   40.2362 H         1 UNK         0.3203 
    115 H115        2.3614   47.3213   42.1682 H         1 UNK         0.0481 
    116 H116        2.5324   47.7544   44.6299 H         1 UNK         0.0835 
    117 H117        4.2875   47.8587   44.4938 H         1 UNK         0.0835 
    118 H118        3.4628   46.3422   44.1597 H         1 UNK         0.0835 
    119 H119        2.0636   49.4992   42.1254 H         1 UNK         0.2959 
    120 H120        3.5381   52.3049   43.3405 H         1 UNK         0.0447 
    121 H121        4.9619   52.4532   41.3183 H         1 UNK         0.0815 
    122 H122        3.4820   53.3460   41.0405 H         1 UNK         0.0815 
    123 H123        3.6985   51.7479   40.3317 H         1 UNK         0.0815 
    124 H124        1.4559   51.9343   41.3847 H         1 UNK         0.2950 
    125 H125       -1.0861   50.8595   43.6162 H         1 UNK         0.1059 
    126 H126       -1.1488   53.3474   43.6848 H         1 UNK         0.0800 
    127 H127       -0.7090   53.4340   41.9856 H         1 UNK         0.0800 
    128 H128       -2.2550   52.7354   42.4661 H         1 UNK         0.0800 
    129 H129       -0.7445   51.2851   40.7406 H         1 UNK         0.2997 
    130 H130       -0.0103   47.8896   40.0007 H         1 UNK         0.1047 
    131 H131       -2.6264   49.4301   39.5445 H         1 UNK         0.0826 
    132 H132       -2.4906   47.8381   40.2771 H         1 UNK         0.0826 
    133 H133       -2.0520   48.0604   38.5923 H         1 UNK         0.0826 
    134 H134       -0.5738   50.2468   38.4177 H         1 UNK         0.2978 
    135 H135        6.7030   47.4611   41.8854 H         1 UNK         0.3185 
    136 H136        9.4417   47.8559   41.5415 H         1 UNK         0.0789 
    137 H137        9.4848   48.0654   44.0478 H         1 UNK         0.0800 
    138 H138        8.4763   46.7305   43.5144 H         1 UNK         0.0800 
    139 H139        7.7330   48.2311   44.0626 H         1 UNK         0.0800 
    140 H140        7.0770   50.3040   42.8135 H         1 UNK         0.3085 
    141 H141        9.1120   52.3907   42.8165 H         1 UNK         0.0645 
    142 H142        6.0954   52.5526   43.2633 H         1 UNK         0.0832 
    143 H143        7.2272   53.8792   43.4607 H         1 UNK         0.0832 
    144 H144        7.3449   52.4664   44.4945 H         1 UNK         0.0832 
    145 H145        6.9873   51.0974   40.3936 H         1 UNK         0.3140 
    146 H146        6.9229   53.4251   38.6848 H         1 UNK         0.0788 
    147 H147        6.5575   50.5120   37.8277 H         1 UNK         0.0803 
    148 H148        6.0542   51.9504   36.9703 H         1 UNK         0.0803 
    149 H149        5.2682   51.5232   38.4761 H         1 UNK         0.0803 
    150 H150        9.0297   50.5482   39.0070 H         1 UNK         0.3179 
    151 H151       10.9574   51.4086   37.0208 H         1 UNK         0.0782 
    152 H152       11.2160   49.4081   39.3355 H         1 UNK         0.0801 
    153 H153       12.3770   49.6209   38.0335 H         1 UNK         0.0801 
    154 H154       10.7689   49.0149   37.6839 H         1 UNK         0.0801 
    155 H155       10.9664   51.4421   40.6375 H         1 UNK         0.3192 
    156 H156       13.5556   52.5945   40.7377 H         1 UNK         0.0760 
    157 H157       13.2013   52.5721   43.1912 H         1 UNK         0.0827 
    158 H158       12.6774   51.0606   42.4672 H         1 UNK         0.0827 
    159 H159       11.4872   52.2597   42.9663 H         1 UNK         0.0827 
    160 H160       10.3374   54.1751   41.1554 H         1 UNK         0.3093 
    161 H161       11.7260   56.7162   41.9123 H         1 UNK         0.0775 
    162 H162        8.8469   55.8321   42.4541 H         1 UNK         0.0811 
    163 H163        9.6049   57.3251   42.9786 H         1 UNK         0.0811 
    164 H164       10.1694   55.7898   43.6169 H         1 UNK         0.0811 
    165 H165        8.9860   55.4441   39.9226 H         1 UNK         0.2980 
    166 H166        8.5794   58.0137   38.6443 H         1 UNK         0.1002 
    167 H167        6.8152   56.9194   37.4333 H         1 UNK         0.0826 
    168 H168        6.7795   56.2214   39.0461 H         1 UNK         0.0826 
    169 H169        7.4889   55.3280   37.6963 H         1 UNK         0.0826 
    170 H170       10.5747   55.2625   37.9264 H         1 UNK         0.3001 
    171 H171       12.0365   54.7000   36.3661 H         1 UNK         0.0616 
    172 H172       12.0450   57.6255   35.4599 H         1 UNK         0.0833 
    173 H173       13.0175   56.9683   36.7763 H         1 UNK         0.0833 
    174 H174       13.2802   56.4215   35.1291 H         1 UNK         0.0833 
    175 H175        9.3811   54.1500   35.8369 H         1 UNK         0.3121 
    176 H176        8.7579   54.6544   33.0234 H         1 UNK         0.0824 
    177 H177        6.9550   54.3736   34.7205 H         1 UNK         0.0789 
    178 H178        7.5119   52.7400   35.0700 H         1 UNK         0.0789 
    179 H179        6.8449   53.1249   33.4893 H         1 UNK         0.0789 
    180 H180       10.6481   52.3673   34.7955 H         1 UNK         0.3031 
    181 H181       11.1392   50.7282   32.3618 H         1 UNK         0.0566 
    182 H182       13.3867   50.3055   31.9322 H         1 UNK         0.3460 
    183 H183       14.6376   51.1720   32.7835 H         1 UNK         0.3460 
    184 H184       11.7859   48.8474   33.9126 H         1 UNK         0.0884 
    185 H185       11.1960   49.7550   35.2754 H         1 UNK         0.0884 
    186 H186        8.9964   49.0204   36.2550 H         1 UNK         0.0735 
    187 H187        8.5296   50.5067   35.4636 H         1 UNK         0.0735 
@<TRIPOS>BOND
     1    1    2 1    
     2    1   97 1    
     3    1   98 1    
     4    1   99 1    
     5    2    3 2    
     6    2    4 am   BACKBONE|DICT|INTERRES
     7    4    5 1    
     8    4  100 1    
     9    5    6 1    
    10    5   40 1    
    11    5  101 1    
    12    6    7 1    
    13    6  102 1    
    14    6  103 1    
    15    7    8 1    
    16    8    9 1    
    17    8  104 1    
    18    8  105 1    
    19    9   10 ar   
    20    9   14 ar   
    21   10   11 ar   
    22   10  106 1    
    23   11   12 ar   
    24   11   96 1    
    25   12   13 ar   
    26   12  107 1    
    27   13   14 ar   
    28   13   15 1    
    29   14  108 1    
    30   15   16 1    
    31   15  109 1    
    32   15  110 1    
    33   16   17 1    
    34   17   18 1    
    35   17  111 1    
    36   17  112 1    
    37   18   19 1    
    38   18   42 1    
    39   18  113 1    
    40   19   20 am   BACKBONE|DICT|INTERRES
    41   19  114 1    
    42   20   21 2    
    43   20   22 1    
    44   22   23 1    
    45   22   24 1    
    46   22  115 1    
    47   23  116 1    
    48   23  117 1    
    49   23  118 1    
    50   24   25 am   BACKBONE|DICT|INTERRES
    51   24  119 1    
    52   25   26 2    
    53   25   27 1    
    54   27   28 1    
    55   27   29 1    
    56   27  120 1    
    57   28  121 1    
    58   28  122 1    
    59   28  123 1    
    60   29   30 am   BACKBONE|DICT|INTERRES
    61   29  124 1    
    62   30   31 2    
    63   30   32 1    
    64   32   33 1    
    65   32   34 1    
    66   32  125 1    
    67   33  126 1    
    68   33  127 1    
    69   33  128 1    
    70   34   35 am   BACKBONE|DICT|INTERRES
    71   34  129 1    
    72   35   36 2    
    73   35   37 1    
    74   37   38 1    
    75   37   39 1    
    76   37  130 1    
    77   38  131 1    
    78   38  132 1    
    79   38  133 1    
    80   39   40 am   BACKBONE|DICT|INTERRES
    81   39  134 1    
    82   40   41 2    
    83   42   43 2    
    84   42   44 am   BACKBONE|DICT|INTERRES
    85   44   45 1    
    86   44  135 1    
    87   45   46 1    
    88   45   47 1    
    89   45  136 1    
    90   46  137 1    
    91   46  138 1    
    92   46  139 1    
    93   47   48 2    
    94   47   49 am   BACKBONE|DICT|INTERRES
    95   49   50 1    
    96   49  140 1    
    97   50   51 1    
    98   50   52 1    
    99   50  141 1    
   100   51  142 1    
   101   51  143 1    
   102   51  144 1    
   103   52   53 2    
   104   52   54 am   BACKBONE|DICT|INTERRES
   105   54   55 1    
   106   54  145 1    
   107   55   56 1    
   108   55   57 1    
   109   55  146 1    
   110   56  147 1    
   111   56  148 1    
   112   56  149 1    
   113   57   58 2    
   114   57   59 am   BACKBONE|DICT|INTERRES
   115   59   60 1    
   116   59  150 1    
   117   60   61 1    
   118   60   62 1    
   119   60  151 1    
   120   61  152 1    
   121   61  153 1    
   122   61  154 1    
   123   62   63 2    
   124   62   64 am   BACKBONE|DICT|INTERRES
   125   64   65 1    
   126   64  155 1    
   127   65   66 1    
   128   65   67 1    
   129   65  156 1    
   130   66  157 1    
   131   66  158 1    
   132   66  159 1    
   133   67   68 2    
   134   67   69 am   BACKBONE|DICT|INTERRES
   135   69   70 1    
   136   69  160 1    
   137   70   71 1    
   138   70   72 1    
   139   70  161 1    
   140   71  162 1    
   141   71  163 1    
   142   71  164 1    
   143   72   73 2    
   144   72   74 am   BACKBONE|DICT|INTERRES
   145   74   75 1    
   146   74  165 1    
   147   75   76 1    
   148   75   77 1    
   149   75  166 1    
   150   76  167 1    
   151   76  168 1    
   152   76  169 1    
   153   77   78 2    
   154   77   79 am   BACKBONE|DICT|INTERRES
   155   79   80 1    
   156   79  170 1    
   157   80   81 1    
   158   80   82 1    
   159   80  171 1    
   160   81  172 1    
   161   81  173 1    
   162   81  174 1    
   163   82   83 2    
   164   82   84 am   BACKBONE|DICT|INTERRES
   165   84   85 1    
   166   84  175 1    
   167   85   86 1    
   168   85   87 1    
   169   85  176 1    
   170   86  177 1    
   171   86  178 1    
   172   86  179 1    
   173   87   88 2    
   174   87   89 am   BACKBONE|DICT|INTERRES
   175   89   90 1    
   176   89  180 1    
   177   90   91 1    
   178   90   94 1    
   179   90  181 1    
   180   91   92 am   BACKBONE|DICT|INTERRES
   181   91   93 2    
   182   92  182 1    
   183   92  183 1    
   184   94   95 1    
   185   94  184 1    
   186   94  185 1    
   187   95   96 1    
   188   96  186 1    
   189   96  187 1    
@<TRIPOS>SUBSTRUCTURE
     1 UNK         1 GROUP             0       ****    0 ROOT    
