@<TRIPOS>MOLECULE
3R135
127   129    1
SMALL
USER_CHARGES


@<TRIPOS>ATOM
      1 CA        -82.5738   27.0941  -71.1319 C.3       0 UNK        -0.1998 
      2 C         -83.0261   27.3481  -72.5622 C.2       0 UNK         0.4909 
      3 O         -84.0578   26.8238  -72.9820 O.2       0 UNK        -0.5240 
      4 N         -82.2616   28.1531  -73.3115 N.am      1 UNK        -0.4739 
      5 CA        -82.5049   28.4877  -74.7206 C.3       1 UNK         0.0864 
      6 C6        -81.7337   29.7611  -75.1620 C.3       11 UNK        -0.0881 
      7 S7        -79.9441   29.7213  -74.7950 S.3       11 UNK        -0.2682 
      8 C8        -79.8760   30.6377  -73.2222 C.3       11 UNK         0.0289 
      9 C9        -78.7882   30.0957  -72.3064 C.ar      11 UNK        -0.0687 
     10 C10       -78.8571   28.7793  -71.8406 C.ar      11 UNK        -0.0823 
     11 C11       -77.8824   28.2740  -70.9789 C.ar      11 UNK        -0.0830 
     12 C12       -76.8349   29.1021  -70.5665 C.ar      11 UNK        -0.1021 
     13 C13       -76.7462   30.4178  -71.0332 C.ar      11 UNK        -0.0753 
     14 C14       -77.7256   30.9096  -71.9025 C.ar      11 UNK        -0.0933 
     15 C15       -75.5970   31.3131  -70.5935 C.3       11 UNK         0.0166 
     16 S16       -74.2276   31.2909  -71.7920 S.3       11 UNK        -0.2615 
     17 C17       -73.5652   29.6119  -71.5295 C.3       11 UNK        -0.0865 
     18 CA        -72.2877   29.3401  -72.3598 C.3       10 UNK         0.0862 
     19 C         -71.6615   27.9803  -71.9665 C.2       10 UNK         0.5551 
     20 N         -70.4859   27.9871  -71.3544 N.am      10 UNK        -0.7319 
     21 O         -72.2523   26.9231  -72.1768 O.2       10 UNK        -0.5018 
     22 N         -72.5852   29.3240  -73.7934 N.am      10 UNK        -0.4509 
     23 C         -71.9723   30.0548  -74.7287 C.2       10 UNK         0.4899 
     24 O         -71.1167   30.9102  -74.4927 O.2       10 UNK        -0.4839 
     25 CA        -72.3837   29.7422  -76.1791 C.3       9 UNK         0.0222 
     26 CB        -71.6143   30.5713  -77.2293 C.3       9 UNK        -0.1966 
     27 N         -72.2918   28.3061  -76.4649 N.am      9 UNK        -0.4218 
     28 C         -71.1984   27.5274  -76.4194 C.2       9 UNK         0.5020 
     29 O         -70.0610   27.9449  -76.1972 O.2       9 UNK        -0.5274 
     30 CA        -71.3974   26.0156  -76.6406 C.3       8 UNK         0.0270 
     31 CB        -71.2448   25.2590  -75.3107 C.3       8 UNK        -0.1976 
     32 N         -72.6936   25.6729  -77.2291 N.am      8 UNK        -0.4313 
     33 C         -73.0491   25.8965  -78.5007 C.2       8 UNK         0.5041 
     34 O         -72.2942   26.3622  -79.3548 O.2       8 UNK        -0.5577 
     35 CA        -74.5072   25.5787  -78.8669 C.3       7 UNK         0.0284 
     36 CB        -74.6883   24.0807  -79.1650 C.3       7 UNK        -0.1958 
     37 N         -75.4444   25.9897  -77.8178 N.am      7 UNK        -0.4454 
     38 C         -75.7618   27.2602  -77.5299 C.2       7 UNK         0.5089 
     39 O         -75.2889   28.2358  -78.1116 O.2       7 UNK        -0.5125 
     40 CA        -76.7766   27.4740  -76.3937 C.3       6 UNK         0.0408 
     41 CB        -78.2006   27.3293  -76.9485 C.3       6 UNK        -0.1791 
     42 N         -76.5686   26.5551  -75.2662 N.am      6 UNK        -0.4762 
     43 C         -75.4927   26.6106  -74.4636 C.2       6 UNK         0.5007 
     44 O         -74.6228   27.4774  -74.5641 O.2       6 UNK        -0.5032 
     45 CA        -75.2917   25.4789  -73.4329 C.3       5 UNK         0.0783 
     46 C46       -75.8317   25.8242  -72.0239 C.3       11 UNK        -0.0857 
     47 S47       -77.6385   25.6507  -71.8402 S.3       11 UNK        -0.2512 
     48 C48       -77.9750   26.8338  -70.4973 C.3       11 UNK         0.0225 
     49 N         -75.7243   24.1572  -73.9036 N.am      5 UNK        -0.4615 
     50 C         -75.1618   23.5081  -74.9304 C.2       4 UNK         0.5053 
     51 O         -74.3058   24.0084  -75.6570 O.2       4 UNK        -0.5105 
     52 CA        -75.6074   22.0656  -75.2137 C.3       4 UNK         0.0263 
     53 CB        -74.5449   21.0846  -74.6935 C.3       4 UNK        -0.1981 
     54 N         -76.9031   21.7156  -74.6228 N.am      4 UNK        -0.4224 
     55 C         -78.1249   21.9707  -75.1140 C.2       3 UNK         0.4895 
     56 O         -79.1380   21.5780  -74.5343 O.2       3 UNK        -0.5091 
     57 CA        -78.2749   22.7210  -76.4588 C.3       3 UNK         0.0250 
     58 CB        -78.2157   21.7359  -77.6404 C.3       3 UNK        -0.1996 
     59 N         -79.5395   23.4536  -76.5406 N.am      3 UNK        -0.4254 
     60 C         -79.8838   24.4892  -75.7656 C.2       2 UNK         0.5004 
     61 O         -79.1319   25.0070  -74.9356 O.2       2 UNK        -0.5226 
     62 CA        -81.3031   25.0316  -75.9767 C.3       2 UNK         0.0269 
     63 CB        -82.3606   24.0269  -75.4799 C.3       2 UNK        -0.1926 
     64 N         -81.4862   26.2995  -75.2722 N.am      2 UNK        -0.4687 
     65 C         -82.2870   27.2943  -75.6798 C.2       1 UNK         0.5165 
     66 O         -82.8844   27.2816  -76.7578 O.2       1 UNK        -0.5079 
     67 H67       -81.7659   27.7615  -70.8330 H         1 UNK         0.0900 
     68 H68       -83.4046   27.2450  -70.4430 H         1 UNK         0.0900 
     69 H69       -82.2257   26.0669  -71.0260 H         1 UNK         0.0900 
     70 H70       -81.4287   28.5632  -72.9188 H         1 UNK         0.2959 
     71 H71       -83.5683   28.7246  -74.8042 H         1 UNK         0.1079 
     72 H72       -82.1730   30.6369  -74.6819 H         1 UNK         0.0837 
     73 H73       -81.8607   29.9342  -76.2326 H         1 UNK         0.0837 
     74 H74       -80.8306   30.5734  -72.6989 H         1 UNK         0.0685 
     75 H75       -79.7170   31.6951  -73.4393 H         1 UNK         0.0685 
     76 H76       -79.6593   28.1322  -72.1612 H         1 UNK         0.1434 
     77 H77       -76.0804   28.7199  -69.8925 H         1 UNK         0.1329 
     78 H78       -77.6593   31.9280  -72.2604 H         1 UNK         0.1335 
     79 H79       -75.9521   32.3391  -70.4855 H         1 UNK         0.0680 
     80 H80       -75.2303   31.0145  -69.6102 H         1 UNK         0.0680 
     81 H81       -74.3372   28.8860  -71.7870 H         1 UNK         0.1032 
     82 H82       -73.3627   29.4888  -70.4637 H         1 UNK         0.1032 
     83 H83       -71.5668   30.1288  -72.1345 H         1 UNK         0.0461 
     84 H84       -69.9978   28.8501  -71.1707 H         1 UNK         0.3453 
     85 H85       -70.0734   27.1097  -71.0790 H         1 UNK         0.3453 
     86 H86       -73.2615   28.6205  -74.0859 H         1 UNK         0.2984 
     87 H87       -73.4401   30.0019  -76.2639 H         1 UNK         0.0554 
     88 H88       -71.7746   31.6389  -77.0744 H         1 UNK         0.0847 
     89 H89       -71.9479   30.3365  -78.2401 H         1 UNK         0.0847 
     90 H90       -70.5393   30.3954  -77.1813 H         1 UNK         0.0847 
     91 H91       -73.1769   27.8446  -76.6263 H         1 UNK         0.3141 
     92 H92       -70.6131   25.6780  -77.3212 H         1 UNK         0.0743 
     93 H93       -70.2756   25.4599  -74.8523 H         1 UNK         0.0784 
     94 H94       -72.0114   25.5537  -74.5930 H         1 UNK         0.0784 
     95 H95       -71.3192   24.1810  -75.4552 H         1 UNK         0.0784 
     96 H96       -73.3599   25.2028  -76.6163 H         1 UNK         0.3213 
     97 H97       -74.7500   26.1366  -79.7742 H         1 UNK         0.0855 
     98 H98       -74.4572   23.4597  -78.2992 H         1 UNK         0.0814 
     99 H99       -74.0287   23.7650  -79.9744 H         1 UNK         0.0814 
    100 H100      -75.7092   23.8576  -79.4756 H         1 UNK         0.0814 
    101 H101      -75.8379   25.2599  -77.2436 H         1 UNK         0.3105 
    102 H102      -76.6623   28.4938  -76.0192 H         1 UNK         0.0547 
    103 H103      -78.3501   26.3686  -77.4415 H         1 UNK         0.0837 
    104 H104      -78.4116   28.1073  -77.6832 H         1 UNK         0.0837 
    105 H105      -78.9448   27.4204  -76.1602 H         1 UNK         0.0837 
    106 H106      -77.2923   25.8647  -75.0835 H         1 UNK         0.3020 
    107 H107      -74.2069   25.4066  -73.3211 H         1 UNK         0.1245 
    108 H108      -75.5240   26.8308  -71.7404 H         1 UNK         0.0781 
    109 H109      -75.3668   25.1638  -71.2903 H         1 UNK         0.0781 
    110 H110      -77.2892   26.6500  -69.6688 H         1 UNK         0.0836 
    111 H111      -78.9780   26.6500  -70.1095 H         1 UNK         0.0836 
    112 H112      -76.4599   23.7127  -73.3733 H         1 UNK         0.3022 
    113 H113      -75.6501   21.9473  -76.2964 H         1 UNK         0.0747 
    114 H114      -74.7953   20.0551  -74.9507 H         1 UNK         0.0793 
    115 H115      -73.5684   21.2963  -75.1323 H         1 UNK         0.0793 
    116 H116      -74.4338   21.1431  -73.6099 H         1 UNK         0.0793 
    117 H117      -76.8542   21.2098  -73.7501 H         1 UNK         0.3047 
    118 H118      -77.4773   23.4557  -76.5658 H         1 UNK         0.0822 
    119 H119      -78.2573   22.2599  -78.5957 H         1 UNK         0.0807 
    120 H120      -79.0436   21.0261  -77.6118 H         1 UNK         0.0807 
    121 H121      -77.2961   21.1509  -77.6369 H         1 UNK         0.0807 
    122 H122      -80.2285   23.0775  -77.1754 H         1 UNK         0.2946 
    123 H123      -81.4310   25.1913  -77.0500 H         1 UNK         0.1144 
    124 H124      -83.3714   24.3985  -75.6495 H         1 UNK         0.0793 
    125 H125      -82.2535   23.8302  -74.4123 H         1 UNK         0.0793 
    126 H126      -82.2800   23.0705  -75.9977 H         1 UNK         0.0793 
    127 H127      -80.9579   26.3996  -74.4157 H         1 UNK         0.2896 
@<TRIPOS>BOND
     1    1    2 1    
     2    1   67 1    
     3    1   68 1    
     4    1   69 1    
     5    2    3 2    
     6    2    4 am   BACKBONE|DICT|INTERRES
     7    4    5 1    
     8    4   70 1    
     9    5    6 1    
    10    5   65 1    
    11    5   71 1    
    12    6    7 1    
    13    6   72 1    
    14    6   73 1    
    15    7    8 1    
    16    8    9 1    
    17    8   74 1    
    18    8   75 1    
    19    9   10 ar   
    20    9   14 ar   
    21   10   11 ar   
    22   10   76 1    
    23   11   12 ar   
    24   11   48 1    
    25   12   13 ar   
    26   12   77 1    
    27   13   14 ar   
    28   13   15 1    
    29   14   78 1    
    30   15   16 1    
    31   15   79 1    
    32   15   80 1    
    33   16   17 1    
    34   17   18 1    
    35   17   81 1    
    36   17   82 1    
    37   18   19 1    
    38   18   22 1    
    39   18   83 1    
    40   19   20 am   BACKBONE|DICT|INTERRES
    41   19   21 2    
    42   20   84 1    
    43   20   85 1    
    44   22   23 am   BACKBONE|DICT|INTERRES
    45   22   86 1    
    46   23   24 2    
    47   23   25 1    
    48   25   26 1    
    49   25   27 1    
    50   25   87 1    
    51   26   88 1    
    52   26   89 1    
    53   26   90 1    
    54   27   28 am   BACKBONE|DICT|INTERRES
    55   27   91 1    
    56   28   29 2    
    57   28   30 1    
    58   30   31 1    
    59   30   32 1    
    60   30   92 1    
    61   31   93 1    
    62   31   94 1    
    63   31   95 1    
    64   32   33 am   BACKBONE|DICT|INTERRES
    65   32   96 1    
    66   33   34 2    
    67   33   35 1    
    68   35   36 1    
    69   35   37 1    
    70   35   97 1    
    71   36   98 1    
    72   36   99 1    
    73   36  100 1    
    74   37   38 am   BACKBONE|DICT|INTERRES
    75   37  101 1    
    76   38   39 2    
    77   38   40 1    
    78   40   41 1    
    79   40   42 1    
    80   40  102 1    
    81   41  103 1    
    82   41  104 1    
    83   41  105 1    
    84   42   43 am   BACKBONE|DICT|INTERRES
    85   42  106 1    
    86   43   44 2    
    87   43   45 1    
    88   45   46 1    
    89   45   49 1    
    90   45  107 1    
    91   46   47 1    
    92   46  108 1    
    93   46  109 1    
    94   47   48 1    
    95   48  110 1    
    96   48  111 1    
    97   49   50 am   BACKBONE|DICT|INTERRES
    98   49  112 1    
    99   50   51 2    
   100   50   52 1    
   101   52   53 1    
   102   52   54 1    
   103   52  113 1    
   104   53  114 1    
   105   53  115 1    
   106   53  116 1    
   107   54   55 am   BACKBONE|DICT|INTERRES
   108   54  117 1    
   109   55   56 2    
   110   55   57 1    
   111   57   58 1    
   112   57   59 1    
   113   57  118 1    
   114   58  119 1    
   115   58  120 1    
   116   58  121 1    
   117   59   60 am   BACKBONE|DICT|INTERRES
   118   59  122 1    
   119   60   61 2    
   120   60   62 1    
   121   62   63 1    
   122   62   64 1    
   123   62  123 1    
   124   63  124 1    
   125   63  125 1    
   126   63  126 1    
   127   64   65 am   BACKBONE|DICT|INTERRES
   128   64  127 1    
   129   65   66 2    
@<TRIPOS>SUBSTRUCTURE
     1 UNK         1 GROUP             0       ****    0 ROOT    
