@<TRIPOS>MOLECULE
3R135
127   129    1
SMALL
USER_CHARGES


@<TRIPOS>ATOM
      1 CA        -81.8288   31.0335  -75.9647 C.3       0 UNK        -0.1998 
      2 C         -81.2466   29.8886  -75.1496 C.2       0 UNK         0.4909 
      3 O         -80.1911   29.3629  -75.5024 O.2       0 UNK        -0.5240 
      4 N         -81.9216   29.5079  -74.0581 N.am      1 UNK        -0.4739 
      5 CA        -81.5271   28.4025  -73.1774 C.3       1 UNK         0.0864 
      6 C6        -82.1878   28.5035  -71.7766 C.3       11 UNK        -0.0881 
      7 S7        -81.8946   30.1191  -70.9698 S.3       11 UNK        -0.2682 
      8 C8        -80.5188   29.7611  -69.8234 C.3       11 UNK         0.0289 
      9 C9        -79.2877   29.1973  -70.5242 C.ar      11 UNK        -0.0687 
     10 C10       -78.7214   27.9974  -70.0849 C.ar      11 UNK        -0.0823 
     11 C11       -77.6152   27.4394  -70.7341 C.ar      11 UNK        -0.0830 
     12 C12       -77.0915   28.0952  -71.8586 C.ar      11 UNK        -0.1021 
     13 C13       -77.6460   29.2998  -72.3062 C.ar      11 UNK        -0.0753 
     14 C14       -78.7218   29.8616  -71.6160 C.ar      11 UNK        -0.0933 
     15 C15       -77.1374   29.9526  -73.5820 C.3       11 UNK         0.0166 
     16 S16       -75.5236   30.7664  -73.3659 S.3       11 UNK        -0.2615 
     17 C17       -74.9931   30.9391  -75.1111 C.3       11 UNK        -0.0865 
     18 CA        -73.4706   30.7411  -75.4125 C.3       10 UNK         0.0862 
     19 C         -72.6105   32.0426  -75.3405 C.2       10 UNK         0.5551 
     20 N         -71.2873   31.9412  -75.3071 N.am      10 UNK        -0.7319 
     21 O         -73.1339   33.1543  -75.3592 O.2       10 UNK        -0.5018 
     22 N         -72.8913   29.5225  -74.8062 N.am      10 UNK        -0.4509 
     23 C         -72.3623   29.4042  -73.5767 C.2       10 UNK         0.4899 
     24 O         -72.2179   30.3406  -72.7902 O.2       10 UNK        -0.4839 
     25 CA        -71.9326   28.0055  -73.1073 C.3       9 UNK         0.0222 
     26 CB        -72.9188   27.4882  -72.0481 C.3       9 UNK        -0.1966 
     27 N         -71.8292   27.0094  -74.1752 N.am      9 UNK        -0.4218 
     28 C         -70.7462   26.8214  -74.9402 C.2       9 UNK         0.5020 
     29 O         -69.7647   27.5653  -74.9275 O.2       9 UNK        -0.5274 
     30 CA        -70.7366   25.5825  -75.8487 C.3       8 UNK         0.0270 
     31 CB        -70.4664   24.3128  -75.0232 C.3       8 UNK        -0.1976 
     32 N         -71.9992   25.4257  -76.5723 N.am      8 UNK        -0.4313 
     33 C         -72.1245   25.4532  -77.9067 C.2       8 UNK         0.5041 
     34 O         -71.1745   25.5751  -78.6820 O.2       8 UNK        -0.5577 
     35 CA        -73.5443   25.3228  -78.4969 C.3       7 UNK         0.0284 
     36 CB        -73.8038   23.8738  -78.9411 C.3       7 UNK        -0.1958 
     37 N         -74.6229   25.7421  -77.5984 N.am      7 UNK        -0.4454 
     38 C         -74.7457   26.9553  -77.0433 C.2       7 UNK         0.5089 
     39 O         -73.9871   27.8986  -77.2655 O.2       7 UNK        -0.5125 
     40 CA        -75.8669   27.1324  -76.0106 C.3       6 UNK         0.0408 
     41 CB        -77.1517   27.6130  -76.7021 C.3       6 UNK        -0.1791 
     42 N         -76.1625   25.9406  -75.2111 N.am      6 UNK        -0.4762 
     43 C         -75.2858   25.2415  -74.4743 C.2       6 UNK         0.5007 
     44 O         -74.0730   25.4552  -74.4615 O.2       6 UNK        -0.5032 
     45 CA        -75.8610   24.0755  -73.6533 C.3       5 UNK         0.0783 
     46 C46       -76.7254   24.5615  -72.4639 C.3       11 UNK        -0.0857 
     47 S47       -75.7326   25.3175  -71.1383 S.3       11 UNK        -0.2512 
     48 C48       -77.0321   26.1441  -70.1576 C.3       11 UNK         0.0225 
     49 N         -76.6122   23.1894  -74.5395 N.am      5 UNK        -0.4615 
     50 C         -76.0540   22.2887  -75.3593 C.2       4 UNK         0.5053 
     51 O         -74.8532   22.0191  -75.3649 O.2       4 UNK        -0.5105 
     52 CA        -76.9878   21.5744  -76.3529 C.3       4 UNK         0.0263 
     53 CB        -77.4567   20.2289  -75.7763 C.3       4 UNK        -0.1981 
     54 N         -78.1576   22.3737  -76.7289 N.am      4 UNK        -0.4224 
     55 C         -78.1090   23.5111  -77.4374 C.2       3 UNK         0.4895 
     56 O         -77.0707   24.0024  -77.8813 O.2       3 UNK        -0.5091 
     57 CA        -79.4444   24.2493  -77.6375 C.3       3 UNK         0.0250 
     58 CB        -80.2045   23.6733  -78.8427 C.3       3 UNK        -0.1996 
     59 N         -80.3153   24.2416  -76.4532 N.am      3 UNK        -0.4254 
     60 C         -79.9780   24.7531  -75.2612 C.2       2 UNK         0.5004 
     61 O         -78.8635   25.2118  -75.0047 O.2       2 UNK        -0.5226 
     62 CA        -81.0321   24.7196  -74.1487 C.3       2 UNK         0.0269 
     63 CB        -80.6947   23.6243  -73.1239 C.3       2 UNK        -0.1926 
     64 N         -81.0371   26.0203  -73.4791 N.am      2 UNK        -0.4687 
     65 C         -81.8221   27.0421  -73.8405 C.2       1 UNK         0.5165 
     66 O         -82.7499   26.9363  -74.6482 O.2       1 UNK        -0.5079 
     67 H67       -82.0455   30.6985  -76.9787 H         1 UNK         0.0900 
     68 H68       -81.1140   31.8540  -76.0216 H         1 UNK         0.0900 
     69 H69       -82.7513   31.4167  -75.5288 H         1 UNK         0.0900 
     70 H70       -82.7887   29.9664  -73.8188 H         1 UNK         0.2959 
     71 H71       -80.4456   28.4556  -73.0526 H         1 UNK         0.1079 
     72 H72       -81.8277   27.7077  -71.1217 H         1 UNK         0.0837 
     73 H73       -83.2675   28.3626  -71.8558 H         1 UNK         0.0837 
     74 H74       -80.2402   30.6822  -69.3100 H         1 UNK         0.0685 
     75 H75       -80.8777   29.0757  -69.0540 H         1 UNK         0.0685 
     76 H76       -79.1444   27.4919  -69.2270 H         1 UNK         0.1434 
     77 H77       -76.2557   27.6787  -72.4007 H         1 UNK         0.1329 
     78 H78       -79.1604   30.7870  -71.9640 H         1 UNK         0.1335 
     79 H79       -77.0740   29.1837  -74.3466 H         1 UNK         0.0680 
     80 H80       -77.8552   30.6847  -73.9557 H         1 UNK         0.0680 
     81 H81       -75.5419   30.2114  -75.7077 H         1 UNK         0.1032 
     82 H82       -75.3477   31.9027  -75.4804 H         1 UNK         0.1032 
     83 H83       -73.4322   30.5217  -76.4802 H         1 UNK         0.0461 
     84 H84       -70.8477   31.0347  -75.2867 H         1 UNK         0.3453 
     85 H85       -70.7267   32.7779  -75.2726 H         1 UNK         0.3453 
     86 H86       -72.9378   28.6969  -75.3882 H         1 UNK         0.2984 
     87 H87       -70.9554   28.1081  -72.6304 H         1 UNK         0.0554 
     88 H88       -72.6235   26.5107  -71.6667 H         1 UNK         0.0847 
     89 H89       -73.9258   27.3995  -72.4548 H         1 UNK         0.0847 
     90 H90       -72.9739   28.1662  -71.1953 H         1 UNK         0.0847 
     91 H91       -72.6147   26.3636  -74.2547 H         1 UNK         0.3141 
     92 H92       -69.9074   25.7069  -76.5483 H         1 UNK         0.0743 
     93 H93       -71.2680   24.1130  -74.3105 H         1 UNK         0.0784 
     94 H94       -70.3683   23.4386  -75.6671 H         1 UNK         0.0784 
     95 H95       -69.5385   24.4038  -74.4567 H         1 UNK         0.0784 
     96 H96       -72.8398   25.3362  -76.0097 H         1 UNK         0.3213 
     97 H97       -73.5868   25.9667  -79.3777 H         1 UNK         0.0855 
     98 H98       -73.8263   23.1907  -78.0906 H         1 UNK         0.0814 
     99 H99       -73.0249   23.5256  -79.6209 H         1 UNK         0.0814 
    100 H100      -74.7544   23.7843  -79.4672 H         1 UNK         0.0814 
    101 H101      -75.3450   25.0558  -77.4016 H         1 UNK         0.3105 
    102 H102      -75.5300   27.8940  -75.3081 H         1 UNK         0.0547 
    103 H103      -77.4859   26.9032  -77.4587 H         1 UNK         0.0837 
    104 H104      -77.9684   27.7457  -75.9923 H         1 UNK         0.0837 
    105 H105      -76.9944   28.5700  -77.2007 H         1 UNK         0.0837 
    106 H106      -77.1449   25.6690  -75.1672 H         1 UNK         0.3020 
    107 H107      -75.0160   23.5133  -73.2477 H         1 UNK         0.1245 
    108 H108      -77.4934   25.2655  -72.7876 H         1 UNK         0.0781 
    109 H109      -77.2564   23.7156  -72.0247 H         1 UNK         0.0781 
    110 H110      -77.8381   25.4299  -69.9813 H         1 UNK         0.0836 
    111 H111      -76.6098   26.3735  -69.1783 H         1 UNK         0.0836 
    112 H112      -77.5948   23.3993  -74.6479 H         1 UNK         0.3022 
    113 H113      -76.4110   21.3779  -77.2594 H         1 UNK         0.0747 
    114 H114      -78.0534   19.6728  -76.4998 H         1 UNK         0.0793 
    115 H115      -76.6050   19.6006  -75.5111 H         1 UNK         0.0793 
    116 H116      -78.0567   20.3615  -74.8750 H         1 UNK         0.0793 
    117 H117      -79.0576   22.0480  -76.4074 H         1 UNK         0.3047 
    118 H118      -79.2075   25.2920  -77.8570 H         1 UNK         0.0822 
    119 H119      -81.0974   24.2579  -79.0653 H         1 UNK         0.0807 
    120 H120      -80.5120   22.6406  -78.6737 H         1 UNK         0.0807 
    121 H121      -79.5815   23.6853  -79.7385 H         1 UNK         0.0807 
    122 H122      -81.2466   23.8718  -76.5813 H         1 UNK         0.2946 
    123 H123      -82.0140   24.5074  -74.5784 H         1 UNK         0.1144 
    124 H124      -81.4380   23.5879  -72.3274 H         1 UNK         0.0793 
    125 H125      -79.7200   23.7844  -72.6620 H         1 UNK         0.0793 
    126 H126      -80.6764   22.6401  -73.5939 H         1 UNK         0.0793 
    127 H127      -80.2672   26.1939  -72.8486 H         1 UNK         0.2896 
@<TRIPOS>BOND
     1    1    2 1    
     2    1   67 1    
     3    1   68 1    
     4    1   69 1    
     5    2    3 2    
     6    2    4 am   BACKBONE|DICT|INTERRES
     7    4    5 1    
     8    4   70 1    
     9    5    6 1    
    10    5   65 1    
    11    5   71 1    
    12    6    7 1    
    13    6   72 1    
    14    6   73 1    
    15    7    8 1    
    16    8    9 1    
    17    8   74 1    
    18    8   75 1    
    19    9   10 ar   
    20    9   14 ar   
    21   10   11 ar   
    22   10   76 1    
    23   11   12 ar   
    24   11   48 1    
    25   12   13 ar   
    26   12   77 1    
    27   13   14 ar   
    28   13   15 1    
    29   14   78 1    
    30   15   16 1    
    31   15   79 1    
    32   15   80 1    
    33   16   17 1    
    34   17   18 1    
    35   17   81 1    
    36   17   82 1    
    37   18   19 1    
    38   18   22 1    
    39   18   83 1    
    40   19   20 am   BACKBONE|DICT|INTERRES
    41   19   21 2    
    42   20   84 1    
    43   20   85 1    
    44   22   23 am   BACKBONE|DICT|INTERRES
    45   22   86 1    
    46   23   24 2    
    47   23   25 1    
    48   25   26 1    
    49   25   27 1    
    50   25   87 1    
    51   26   88 1    
    52   26   89 1    
    53   26   90 1    
    54   27   28 am   BACKBONE|DICT|INTERRES
    55   27   91 1    
    56   28   29 2    
    57   28   30 1    
    58   30   31 1    
    59   30   32 1    
    60   30   92 1    
    61   31   93 1    
    62   31   94 1    
    63   31   95 1    
    64   32   33 am   BACKBONE|DICT|INTERRES
    65   32   96 1    
    66   33   34 2    
    67   33   35 1    
    68   35   36 1    
    69   35   37 1    
    70   35   97 1    
    71   36   98 1    
    72   36   99 1    
    73   36  100 1    
    74   37   38 am   BACKBONE|DICT|INTERRES
    75   37  101 1    
    76   38   39 2    
    77   38   40 1    
    78   40   41 1    
    79   40   42 1    
    80   40  102 1    
    81   41  103 1    
    82   41  104 1    
    83   41  105 1    
    84   42   43 am   BACKBONE|DICT|INTERRES
    85   42  106 1    
    86   43   44 2    
    87   43   45 1    
    88   45   46 1    
    89   45   49 1    
    90   45  107 1    
    91   46   47 1    
    92   46  108 1    
    93   46  109 1    
    94   47   48 1    
    95   48  110 1    
    96   48  111 1    
    97   49   50 am   BACKBONE|DICT|INTERRES
    98   49  112 1    
    99   50   51 2    
   100   50   52 1    
   101   52   53 1    
   102   52   54 1    
   103   52  113 1    
   104   53  114 1    
   105   53  115 1    
   106   53  116 1    
   107   54   55 am   BACKBONE|DICT|INTERRES
   108   54  117 1    
   109   55   56 2    
   110   55   57 1    
   111   57   58 1    
   112   57   59 1    
   113   57  118 1    
   114   58  119 1    
   115   58  120 1    
   116   58  121 1    
   117   59   60 am   BACKBONE|DICT|INTERRES
   118   59  122 1    
   119   60   61 2    
   120   60   62 1    
   121   62   63 1    
   122   62   64 1    
   123   62  123 1    
   124   63  124 1    
   125   63  125 1    
   126   63  126 1    
   127   64   65 am   BACKBONE|DICT|INTERRES
   128   64  127 1    
   129   65   66 2    
@<TRIPOS>SUBSTRUCTURE
     1 UNK         1 GROUP             0       ****    0 ROOT    
