@<TRIPOS>MOLECULE
3R135
127   129    1
SMALL
USER_CHARGES


@<TRIPOS>ATOM
      1 CA        -83.1924   27.0283  -76.6874 C.3       0 UNK        -0.1998 
      2 C         -82.0623   27.6799  -75.9059 C.2       0 UNK         0.4909 
      3 O         -81.1960   28.3157  -76.5070 O.2       0 UNK        -0.5240 
      4 N         -82.0555   27.5158  -74.5748 N.am      1 UNK        -0.4739 
      5 CA        -81.0678   28.0849  -73.6491 C.3       1 UNK         0.0864 
      6 C6        -81.4342   27.7953  -72.1726 C.3       11 UNK        -0.0881 
      7 S7        -80.8132   29.0967  -71.0571 S.3       11 UNK        -0.2682 
      8 C8        -79.9646   28.1283  -69.7704 C.3       11 UNK         0.0289 
      9 C9        -78.5511   27.7218  -70.1673 C.ar      11 UNK        -0.0687 
     10 C10       -78.2184   26.3744  -70.3386 C.ar      11 UNK        -0.0823 
     11 C11       -76.8976   25.9912  -70.6008 C.ar      11 UNK        -0.0830 
     12 C12       -75.9096   26.9780  -70.7123 C.ar      11 UNK        -0.1021 
     13 C13       -76.2330   28.3296  -70.5595 C.ar      11 UNK        -0.0753 
     14 C14       -77.5540   28.6938  -70.2857 C.ar      11 UNK        -0.0933 
     15 C15       -75.1551   29.3992  -70.6413 C.3       11 UNK         0.0166 
     16 S16       -75.1711   30.2318  -72.2550 S.3       11 UNK        -0.2615 
     17 C17       -74.0558   31.6328  -71.9189 C.3       11 UNK        -0.0865 
     18 CA        -73.5427   32.3124  -73.2145 C.3       10 UNK         0.0862 
     19 C         -72.7678   33.6129  -72.8622 C.2       10 UNK         0.5551 
     20 N         -73.4414   34.7549  -72.8586 N.am      10 UNK        -0.7319 
     21 O         -71.5793   33.5856  -72.5475 O.2       10 UNK        -0.5018 
     22 N         -72.7490   31.3794  -74.0287 N.am      10 UNK        -0.4509 
     23 C         -72.2444   31.6384  -75.2432 C.2       10 UNK         0.4899 
     24 O         -72.4606   32.6745  -75.8726 O.2       10 UNK        -0.4839 
     25 CA        -71.3362   30.5627  -75.8671 C.3       9 UNK         0.0222 
     26 CB        -69.8580   30.9035  -75.6151 C.3       9 UNK        -0.1966 
     27 N         -71.6140   29.2136  -75.3644 N.am      9 UNK        -0.4218 
     28 C         -72.6506   28.4634  -75.7584 C.2       9 UNK         0.5020 
     29 O         -73.4578   28.8061  -76.6256 O.2       9 UNK        -0.5274 
     30 CA        -72.8176   27.1194  -75.0385 C.3       8 UNK         0.0270 
     31 CB        -73.5540   27.3069  -73.7026 C.3       8 UNK        -0.1976 
     32 N         -73.5853   26.1944  -75.8690 N.am      8 UNK        -0.4313 
     33 C         -73.0598   25.1873  -76.5687 C.2       8 UNK         0.5041 
     34 O         -71.8573   24.9058  -76.5900 O.2       8 UNK        -0.5577 
     35 CA        -74.0405   24.3341  -77.3766 C.3       7 UNK         0.0284 
     36 CB        -74.1390   24.8151  -78.8335 C.3       7 UNK        -0.1958 
     37 N         -73.5420   22.9618  -77.3278 N.am      7 UNK        -0.4454 
     38 C         -74.2159   21.8049  -77.2942 C.2       7 UNK         0.5089 
     39 O         -73.6183   20.7323  -77.2038 O.2       7 UNK        -0.5125 
     40 CA        -75.7618   21.8048  -77.3698 C.3       6 UNK         0.0408 
     41 CB        -76.3492   20.3849  -77.5059 C.3       6 UNK        -0.1791 
     42 N         -76.4196   22.4990  -76.2580 N.am      6 UNK        -0.4762 
     43 C         -76.2396   22.3344  -74.9362 C.2       6 UNK         0.5007 
     44 O         -75.4671   21.5125  -74.4432 O.2       6 UNK        -0.5032 
     45 CA        -77.0831   23.2380  -74.0017 C.3       5 UNK         0.0783 
     46 C46       -76.2620   24.4475  -73.4820 C.3       11 UNK        -0.0857 
     47 S47       -75.3287   24.0719  -71.9673 S.3       11 UNK        -0.2512 
     48 C48       -76.5514   24.5044  -70.6823 C.3       11 UNK         0.0225 
     49 N         -78.3218   23.7079  -74.6255 N.am      5 UNK        -0.4615 
     50 C         -79.3246   22.9457  -75.0790 C.2       4 UNK         0.5053 
     51 O         -79.4005   21.7300  -74.9034 O.2       4 UNK        -0.5105 
     52 CA        -80.3988   23.6624  -75.9147 C.3       4 UNK         0.0263 
     53 CB        -81.6240   23.9927  -75.0482 C.3       4 UNK        -0.1981 
     54 N         -79.8947   24.8821  -76.5632 N.am      4 UNK        -0.4224 
     55 C         -78.9914   24.8991  -77.5570 C.2       3 UNK         0.4895 
     56 O         -78.5108   23.8834  -78.0581 O.2       3 UNK        -0.5091 
     57 CA        -78.5092   26.2726  -78.0485 C.3       3 UNK         0.0250 
     58 CB        -79.4509   26.8215  -79.1317 C.3       3 UNK        -0.1996 
     59 N         -78.3904   27.2412  -76.9570 N.am      3 UNK        -0.4254 
     60 C         -77.3628   27.2790  -76.0941 C.2       2 UNK         0.5004 
     61 O         -76.3858   26.5326  -76.1583 O.2       2 UNK        -0.5226 
     62 CA        -77.4462   28.3033  -74.9474 C.3       2 UNK         0.0269 
     63 CB        -76.8283   29.6382  -75.3913 C.3       2 UNK        -0.1926 
     64 N         -78.8086   28.5496  -74.4716 N.am      2 UNK        -0.4687 
     65 C         -79.6392   27.6165  -73.9890 C.2       1 UNK         0.5165 
     66 O         -79.3444   26.4248  -73.8759 O.2       1 UNK        -0.5079 
     67 H67       -83.8996   26.5172  -76.0345 H         1 UNK         0.0900 
     68 H68       -83.7387   27.7833  -77.2520 H         1 UNK         0.0900 
     69 H69       -82.7914   26.3011  -77.3929 H         1 UNK         0.0900 
     70 H70       -82.7862   26.9667  -74.1454 H         1 UNK         0.2959 
     71 H71       -81.1183   29.1654  -73.8032 H         1 UNK         0.1079 
     72 H72       -81.0882   26.8091  -71.8558 H         1 UNK         0.0837 
     73 H73       -82.5182   27.7797  -72.0490 H         1 UNK         0.0837 
     74 H74       -80.5680   27.2577  -69.5085 H         1 UNK         0.0685 
     75 H75       -79.9083   28.7356  -68.8658 H         1 UNK         0.0685 
     76 H76       -78.9845   25.6187  -70.2303 H         1 UNK         0.1434 
     77 H77       -74.8832   26.6937  -70.8984 H         1 UNK         0.1329 
     78 H78       -77.8043   29.7368  -70.1470 H         1 UNK         0.1335 
     79 H79       -74.1685   28.9657  -70.4696 H         1 UNK         0.0680 
     80 H80       -75.3131   30.1347  -69.8508 H         1 UNK         0.0680 
     81 H81       -74.6055   32.3479  -71.3032 H         1 UNK         0.1032 
     82 H82       -73.2162   31.2896  -71.3109 H         1 UNK         0.1032 
     83 H83       -74.4101   32.5928  -73.8159 H         1 UNK         0.0461 
     84 H84       -74.4186   34.7847  -73.1054 H         1 UNK         0.3453 
     85 H85       -72.9605   35.6072  -72.6162 H         1 UNK         0.3453 
     86 H86       -72.5224   30.5002  -73.5920 H         1 UNK         0.2984 
     87 H87       -71.5047   30.5734  -76.9463 H         1 UNK         0.0554 
     88 H88       -69.6137   31.8910  -76.0094 H         1 UNK         0.0847 
     89 H89       -69.1955   30.1893  -76.1046 H         1 UNK         0.0847 
     90 H90       -69.6189   30.9116  -74.5508 H         1 UNK         0.0847 
     91 H91       -70.9889   28.8522  -74.6575 H         1 UNK         0.3141 
     92 H92       -71.8265   26.7103  -74.8306 H         1 UNK         0.0743 
     93 H93       -74.5537   27.7146  -73.8482 H         1 UNK         0.0784 
     94 H94       -73.6548   26.3600  -73.1731 H         1 UNK         0.0784 
     95 H95       -73.0158   27.9877  -73.0425 H         1 UNK         0.0784 
     96 H96       -74.5781   26.4042  -75.9783 H         1 UNK         0.3213 
     97 H97       -75.0180   24.4249  -76.9114 H         1 UNK         0.0855 
     98 H98       -73.1728   24.7732  -79.3379 H         1 UNK         0.0814 
     99 H99       -74.4867   25.8484  -78.8762 H         1 UNK         0.0814 
    100 H100      -74.8437   24.2137  -79.4072 H         1 UNK         0.0814 
    101 H101      -72.5362   22.9305  -77.2134 H         1 UNK         0.3105 
    102 H102      -76.0280   22.3521  -78.2747 H         1 UNK         0.0547 
    103 H103      -77.4308   20.4164  -77.6375 H         1 UNK         0.0837 
    104 H104      -76.1372   19.7738  -76.6278 H         1 UNK         0.0837 
    105 H105      -75.9326   19.8693  -78.3720 H         1 UNK         0.0837 
    106 H106      -77.1084   23.1828  -76.5494 H         1 UNK         0.3020 
    107 H107      -77.3868   22.6185  -73.1551 H         1 UNK         0.1245 
    108 H108      -76.9121   25.2970  -73.2668 H         1 UNK         0.0781 
    109 H109      -75.5649   24.8127  -74.2376 H         1 UNK         0.0781 
    110 H110      -76.1575   24.1926  -69.7143 H         1 UNK         0.0836 
    111 H111      -77.4514   23.9110  -70.8511 H         1 UNK         0.0836 
    112 H112      -78.4186   24.7119  -74.7232 H         1 UNK         0.3022 
    113 H113      -80.7138   22.9714  -76.6995 H         1 UNK         0.0747 
    114 H114      -82.4323   24.4114  -75.6459 H         1 UNK         0.0793 
    115 H115      -82.0147   23.0929  -74.5708 H         1 UNK         0.0793 
    116 H116      -81.3818   24.6989  -74.2540 H         1 UNK         0.0793 
    117 H117      -80.1840   25.7630  -76.1640 H         1 UNK         0.3047 
    118 H118      -77.5232   26.1356  -78.4988 H         1 UNK         0.0822 
    119 H119      -79.0941   27.7755  -79.5201 H         1 UNK         0.0807 
    120 H120      -80.4633   26.9710  -78.7555 H         1 UNK         0.0807 
    121 H121      -79.5160   26.1328  -79.9753 H         1 UNK         0.0807 
    122 H122      -79.1739   27.8711  -76.8145 H         1 UNK         0.2946 
    123 H123      -76.8764   27.9102  -74.1028 H         1 UNK         0.1144 
    124 H124      -76.9043   30.3955  -74.6118 H         1 UNK         0.0793 
    125 H125      -77.3132   30.0326  -76.2851 H         1 UNK         0.0793 
    126 H126      -75.7696   29.5184  -75.6196 H         1 UNK         0.0793 
    127 H127      -79.1470   29.4968  -74.5611 H         1 UNK         0.2896 
@<TRIPOS>BOND
     1    1    2 1    
     2    1   67 1    
     3    1   68 1    
     4    1   69 1    
     5    2    3 2    
     6    2    4 am   BACKBONE|DICT|INTERRES
     7    4    5 1    
     8    4   70 1    
     9    5    6 1    
    10    5   65 1    
    11    5   71 1    
    12    6    7 1    
    13    6   72 1    
    14    6   73 1    
    15    7    8 1    
    16    8    9 1    
    17    8   74 1    
    18    8   75 1    
    19    9   10 ar   
    20    9   14 ar   
    21   10   11 ar   
    22   10   76 1    
    23   11   12 ar   
    24   11   48 1    
    25   12   13 ar   
    26   12   77 1    
    27   13   14 ar   
    28   13   15 1    
    29   14   78 1    
    30   15   16 1    
    31   15   79 1    
    32   15   80 1    
    33   16   17 1    
    34   17   18 1    
    35   17   81 1    
    36   17   82 1    
    37   18   19 1    
    38   18   22 1    
    39   18   83 1    
    40   19   20 am   BACKBONE|DICT|INTERRES
    41   19   21 2    
    42   20   84 1    
    43   20   85 1    
    44   22   23 am   BACKBONE|DICT|INTERRES
    45   22   86 1    
    46   23   24 2    
    47   23   25 1    
    48   25   26 1    
    49   25   27 1    
    50   25   87 1    
    51   26   88 1    
    52   26   89 1    
    53   26   90 1    
    54   27   28 am   BACKBONE|DICT|INTERRES
    55   27   91 1    
    56   28   29 2    
    57   28   30 1    
    58   30   31 1    
    59   30   32 1    
    60   30   92 1    
    61   31   93 1    
    62   31   94 1    
    63   31   95 1    
    64   32   33 am   BACKBONE|DICT|INTERRES
    65   32   96 1    
    66   33   34 2    
    67   33   35 1    
    68   35   36 1    
    69   35   37 1    
    70   35   97 1    
    71   36   98 1    
    72   36   99 1    
    73   36  100 1    
    74   37   38 am   BACKBONE|DICT|INTERRES
    75   37  101 1    
    76   38   39 2    
    77   38   40 1    
    78   40   41 1    
    79   40   42 1    
    80   40  102 1    
    81   41  103 1    
    82   41  104 1    
    83   41  105 1    
    84   42   43 am   BACKBONE|DICT|INTERRES
    85   42  106 1    
    86   43   44 2    
    87   43   45 1    
    88   45   46 1    
    89   45   49 1    
    90   45  107 1    
    91   46   47 1    
    92   46  108 1    
    93   46  109 1    
    94   47   48 1    
    95   48  110 1    
    96   48  111 1    
    97   49   50 am   BACKBONE|DICT|INTERRES
    98   49  112 1    
    99   50   51 2    
   100   50   52 1    
   101   52   53 1    
   102   52   54 1    
   103   52  113 1    
   104   53  114 1    
   105   53  115 1    
   106   53  116 1    
   107   54   55 am   BACKBONE|DICT|INTERRES
   108   54  117 1    
   109   55   56 2    
   110   55   57 1    
   111   57   58 1    
   112   57   59 1    
   113   57  118 1    
   114   58  119 1    
   115   58  120 1    
   116   58  121 1    
   117   59   60 am   BACKBONE|DICT|INTERRES
   118   59  122 1    
   119   60   61 2    
   120   60   62 1    
   121   62   63 1    
   122   62   64 1    
   123   62  123 1    
   124   63  124 1    
   125   63  125 1    
   126   63  126 1    
   127   64   65 am   BACKBONE|DICT|INTERRES
   128   64  127 1    
   129   65   66 2    
@<TRIPOS>SUBSTRUCTURE
     1 UNK         1 GROUP             0       ****    0 ROOT    
