@<TRIPOS>MOLECULE
3R135
127   129    1
SMALL
USER_CHARGES


@<TRIPOS>ATOM
      1 CA        -80.8631   22.1911  -74.0332 C.3       0 UNK        -0.1998 
      2 C         -81.7474   23.3105  -73.5043 C.2       0 UNK         0.4909 
      3 O         -82.8565   23.0498  -73.0376 O.2       0 UNK        -0.5240 
      4 N         -81.2653   24.5547  -73.5906 N.am      1 UNK        -0.4739 
      5 CA        -81.9876   25.7739  -73.2054 C.3       1 UNK         0.0864 
      6 C6        -81.0634   26.7706  -72.4565 C.3       11 UNK        -0.0881 
      7 S7        -80.4870   26.1037  -70.8637 S.3       11 UNK        -0.2682 
      8 C8        -79.5664   27.5271  -70.1937 C.3       11 UNK         0.0289 
      9 C9        -78.1421   27.6027  -70.7286 C.ar      11 UNK        -0.0687 
     10 C10       -77.2453   26.5660  -70.4565 C.ar      11 UNK        -0.0823 
     11 C11       -75.9277   26.6241  -70.9167 C.ar      11 UNK        -0.0830 
     12 C12       -75.4956   27.7529  -71.6139 C.ar      11 UNK        -0.1021 
     13 C13       -76.3785   28.8005  -71.8968 C.ar      11 UNK        -0.0753 
     14 C14       -77.7052   28.7153  -71.4567 C.ar      11 UNK        -0.0933 
     15 C15       -75.8977   30.0267  -72.6659 C.3       11 UNK         0.0166 
     16 S16       -75.0002   29.5713  -74.1825 S.3       11 UNK        -0.2615 
     17 C17       -74.7408   31.1950  -74.9772 C.3       11 UNK        -0.0865 
     18 CA        -73.2442   31.5190  -75.2321 C.3       10 UNK         0.0862 
     19 C         -72.5101   31.9976  -73.9429 C.2       10 UNK         0.5551 
     20 N         -71.3918   31.4052  -73.5395 N.am      10 UNK        -0.7319 
     21 O         -72.9593   32.9441  -73.3011 O.2       10 UNK        -0.5018 
     22 N         -72.5883   30.4152  -75.9463 N.am      10 UNK        -0.4509 
     23 C         -71.5073   30.5085  -76.7263 C.2       10 UNK         0.4899 
     24 O         -70.9738   31.5742  -77.0386 O.2       10 UNK        -0.4839 
     25 CA        -70.9262   29.1660  -77.2165 C.3       9 UNK         0.0222 
     26 CB        -69.5017   29.3029  -77.7948 C.3       9 UNK        -0.1966 
     27 N         -70.9723   28.1189  -76.1837 N.am      9 UNK        -0.4218 
     28 C         -70.4046   28.1482  -74.9690 C.2       9 UNK         0.5020 
     29 O         -69.7352   29.0958  -74.5552 O.2       9 UNK        -0.5274 
     30 CA        -70.6146   26.9396  -74.0349 C.3       8 UNK         0.0270 
     31 CB        -71.6227   27.2921  -72.9212 C.3       8 UNK        -0.1976 
     32 N         -70.9735   25.6671  -74.6864 N.am      8 UNK        -0.4313 
     33 C         -72.1087   25.3537  -75.3249 C.2       8 UNK         0.5041 
     34 O         -73.0045   26.1702  -75.5622 O.2       8 UNK        -0.5577 
     35 CA        -72.2682   23.8983  -75.7949 C.3       7 UNK         0.0284 
     36 CB        -71.9528   22.8821  -74.6756 C.3       7 UNK        -0.1958 
     37 N         -73.6492   23.7530  -76.2342 N.am      7 UNK        -0.4454 
     38 C         -74.1985   22.7584  -76.9367 C.2       7 UNK         0.5089 
     39 O         -73.5706   21.7905  -77.3695 O.2       7 UNK        -0.5125 
     40 CA        -75.7172   22.8863  -77.1826 C.3       6 UNK         0.0408 
     41 CB        -76.3768   21.5629  -77.6253 C.3       6 UNK        -0.1791 
     42 N         -76.4146   23.4794  -76.0303 N.am      6 UNK        -0.4762 
     43 C         -76.5105   22.9759  -74.7871 C.2       6 UNK         0.5007 
     44 O         -76.1321   21.8425  -74.4884 O.2       6 UNK        -0.5032 
     45 CA        -77.1062   23.8914  -73.6871 C.3       5 UNK         0.0783 
     46 C46       -76.4356   23.6687  -72.3033 C.3       11 UNK        -0.0857 
     47 S47       -74.7734   24.4205  -72.1445 S.3       11 UNK        -0.2512 
     48 C48       -74.9689   25.4699  -70.6665 C.3       11 UNK         0.0225 
     49 N         -77.1093   25.3105  -74.0723 N.am      5 UNK        -0.4615 
     50 C         -78.0469   25.9144  -74.8076 C.2       4 UNK         0.5053 
     51 O         -79.0796   25.3573  -75.1877 O.2       4 UNK        -0.5105 
     52 CA        -77.7497   27.3520  -75.2430 C.3       4 UNK         0.0263 
     53 CB        -76.6769   27.3661  -76.3506 C.3       4 UNK        -0.1981 
     54 N         -78.9783   27.9669  -75.7330 N.am      4 UNK        -0.4224 
     55 C         -79.2101   29.2781  -75.8739 C.2       3 UNK         0.4895 
     56 O         -78.3851   30.1463  -75.5892 O.2       3 UNK        -0.5091 
     57 CA        -80.5974   29.7240  -76.3857 C.3       3 UNK         0.0250 
     58 CB        -80.4906   30.4935  -77.7187 C.3       3 UNK        -0.1996 
     59 N         -81.6021   28.6520  -76.4549 N.am      3 UNK        -0.4254 
     60 C         -81.6647   27.6055  -77.2913 C.2       2 UNK         0.5004 
     61 O         -80.8896   27.4206  -78.2298 O.2       2 UNK        -0.5226 
     62 CA        -82.7125   26.5359  -76.9323 C.3       2 UNK         0.0269 
     63 CB        -82.8227   25.4279  -77.9963 C.3       2 UNK        -0.1926 
     64 N         -82.3644   25.9245  -75.6469 N.am      2 UNK        -0.4687 
     65 C         -82.6162   26.4543  -74.4398 C.2       1 UNK         0.5165 
     66 O         -83.2789   27.4826  -74.2918 O.2       1 UNK        -0.5079 
     67 H67       -80.1034   22.5663  -74.7188 H         1 UNK         0.0900 
     68 H68       -81.4636   21.4582  -74.5715 H         1 UNK         0.0900 
     69 H69       -80.3648   21.6835  -73.2077 H         1 UNK         0.0900 
     70 H70       -80.3635   24.7174  -74.0331 H         1 UNK         0.2959 
     71 H71       -82.8178   25.5209  -72.5422 H         1 UNK         0.1079 
     72 H72       -81.5915   27.7034  -72.2479 H         1 UNK         0.0837 
     73 H73       -80.1970   27.0379  -73.0631 H         1 UNK         0.0837 
     74 H74       -80.1143   28.4488  -70.3954 H         1 UNK         0.0685 
     75 H75       -79.5236   27.4312  -69.1079 H         1 UNK         0.0685 
     76 H76       -77.5833   25.7069  -69.8934 H         1 UNK         0.1434 
     77 H77       -74.4712   27.8079  -71.9533 H         1 UNK         0.1329 
     78 H78       -78.3932   29.5228  -71.6667 H         1 UNK         0.1335 
     79 H79       -76.7438   30.6597  -72.9387 H         1 UNK         0.0680 
     80 H80       -75.2460   30.6222  -72.0251 H         1 UNK         0.0680 
     81 H81       -75.2229   31.9851  -74.3985 H         1 UNK         0.1032 
     82 H82       -75.2725   31.1754  -75.9299 H         1 UNK         0.1032 
     83 H83       -73.2246   32.3836  -75.8982 H         1 UNK         0.0461 
     84 H84       -70.9788   30.6423  -74.0627 H         1 UNK         0.3453 
     85 H85       -70.9355   31.7410  -72.7068 H         1 UNK         0.3453 
     86 H86       -72.9487   29.4968  -75.7273 H         1 UNK         0.2984 
     87 H87       -71.5789   28.8284  -78.0228 H         1 UNK         0.0554 
     88 H88       -69.1234   28.3444  -78.1496 H         1 UNK         0.0847 
     89 H89       -68.7992   29.6878  -77.0548 H         1 UNK         0.0847 
     90 H90       -69.4879   29.9890  -78.6425 H         1 UNK         0.0847 
     91 H91       -71.6013   27.3409  -76.3594 H         1 UNK         0.3141 
     92 H92       -69.6505   26.7594  -73.5567 H         1 UNK         0.0743 
     93 H93       -72.6025   27.5396  -73.3300 H         1 UNK         0.0784 
     94 H94       -71.7503   26.4667  -72.2208 H         1 UNK         0.0784 
     95 H95       -71.2866   28.1573  -72.3480 H         1 UNK         0.0784 
     96 H96       -70.2791   24.9383  -74.5935 H         1 UNK         0.3213 
     97 H97       -71.6052   23.7351  -76.6467 H         1 UNK         0.0855 
     98 H98       -70.9071   22.9291  -74.3715 H         1 UNK         0.0814 
     99 H99       -72.5624   23.0609  -73.7892 H         1 UNK         0.0814 
    100 H100      -72.1374   21.8581  -75.0003 H         1 UNK         0.0814 
    101 H101      -74.2188   24.5516  -75.9796 H         1 UNK         0.3105 
    102 H102      -75.8309   23.5967  -78.0027 H         1 UNK         0.0547 
    103 H103      -75.9513   21.2132  -78.5666 H         1 UNK         0.0837 
    104 H104      -76.2315   20.7687  -76.8928 H         1 UNK         0.0837 
    105 H105      -77.4485   21.6854  -77.7808 H         1 UNK         0.0837 
    106 H106      -76.7915   24.4044  -76.1785 H         1 UNK         0.3020 
    107 H107      -78.1427   23.5664  -73.5823 H         1 UNK         0.1245 
    108 H108      -76.3572   22.6068  -72.0635 H         1 UNK         0.0781 
    109 H109      -77.0906   24.0698  -71.5319 H         1 UNK         0.0781 
    110 H110      -73.9918   25.8637  -70.3826 H         1 UNK         0.0836 
    111 H111      -75.3057   24.8585  -69.8279 H         1 UNK         0.0836 
    112 H112      -76.2943   25.8343  -73.7811 H         1 UNK         0.3022 
    113 H113      -77.4021   27.9074  -74.3720 H         1 UNK         0.0747 
    114 H114      -75.7386   26.9339  -75.9999 H         1 UNK         0.0793 
    115 H115      -76.9951   26.8030  -77.2287 H         1 UNK         0.0793 
    116 H116      -76.4526   28.3830  -76.6731 H         1 UNK         0.0793 
    117 H117      -79.6998   27.3047  -75.9875 H         1 UNK         0.3047 
    118 H118      -80.9745   30.4236  -75.6380 H         1 UNK         0.0822 
    119 H119      -81.4679   30.8323  -78.0624 H         1 UNK         0.0807 
    120 H120      -80.0473   29.8856  -78.5076 H         1 UNK         0.0807 
    121 H121      -79.8627   31.3783  -77.6063 H         1 UNK         0.0807 
    122 H122      -82.2714   28.6488  -75.6913 H         1 UNK         0.2946 
    123 H123      -83.6840   27.0303  -76.8558 H         1 UNK         0.1144 
    124 H124      -83.5977   24.7064  -77.7373 H         1 UNK         0.0793 
    125 H125      -81.8847   24.8837  -78.1149 H         1 UNK         0.0793 
    126 H126      -83.0829   25.8466  -78.9695 H         1 UNK         0.0793 
    127 H127      -81.7808   25.1007  -75.6834 H         1 UNK         0.2896 
@<TRIPOS>BOND
     1    1    2 1    
     2    1   67 1    
     3    1   68 1    
     4    1   69 1    
     5    2    3 2    
     6    2    4 am   BACKBONE|DICT|INTERRES
     7    4    5 1    
     8    4   70 1    
     9    5    6 1    
    10    5   65 1    
    11    5   71 1    
    12    6    7 1    
    13    6   72 1    
    14    6   73 1    
    15    7    8 1    
    16    8    9 1    
    17    8   74 1    
    18    8   75 1    
    19    9   10 ar   
    20    9   14 ar   
    21   10   11 ar   
    22   10   76 1    
    23   11   12 ar   
    24   11   48 1    
    25   12   13 ar   
    26   12   77 1    
    27   13   14 ar   
    28   13   15 1    
    29   14   78 1    
    30   15   16 1    
    31   15   79 1    
    32   15   80 1    
    33   16   17 1    
    34   17   18 1    
    35   17   81 1    
    36   17   82 1    
    37   18   19 1    
    38   18   22 1    
    39   18   83 1    
    40   19   20 am   BACKBONE|DICT|INTERRES
    41   19   21 2    
    42   20   84 1    
    43   20   85 1    
    44   22   23 am   BACKBONE|DICT|INTERRES
    45   22   86 1    
    46   23   24 2    
    47   23   25 1    
    48   25   26 1    
    49   25   27 1    
    50   25   87 1    
    51   26   88 1    
    52   26   89 1    
    53   26   90 1    
    54   27   28 am   BACKBONE|DICT|INTERRES
    55   27   91 1    
    56   28   29 2    
    57   28   30 1    
    58   30   31 1    
    59   30   32 1    
    60   30   92 1    
    61   31   93 1    
    62   31   94 1    
    63   31   95 1    
    64   32   33 am   BACKBONE|DICT|INTERRES
    65   32   96 1    
    66   33   34 2    
    67   33   35 1    
    68   35   36 1    
    69   35   37 1    
    70   35   97 1    
    71   36   98 1    
    72   36   99 1    
    73   36  100 1    
    74   37   38 am   BACKBONE|DICT|INTERRES
    75   37  101 1    
    76   38   39 2    
    77   38   40 1    
    78   40   41 1    
    79   40   42 1    
    80   40  102 1    
    81   41  103 1    
    82   41  104 1    
    83   41  105 1    
    84   42   43 am   BACKBONE|DICT|INTERRES
    85   42  106 1    
    86   43   44 2    
    87   43   45 1    
    88   45   46 1    
    89   45   49 1    
    90   45  107 1    
    91   46   47 1    
    92   46  108 1    
    93   46  109 1    
    94   47   48 1    
    95   48  110 1    
    96   48  111 1    
    97   49   50 am   BACKBONE|DICT|INTERRES
    98   49  112 1    
    99   50   51 2    
   100   50   52 1    
   101   52   53 1    
   102   52   54 1    
   103   52  113 1    
   104   53  114 1    
   105   53  115 1    
   106   53  116 1    
   107   54   55 am   BACKBONE|DICT|INTERRES
   108   54  117 1    
   109   55   56 2    
   110   55   57 1    
   111   57   58 1    
   112   57   59 1    
   113   57  118 1    
   114   58  119 1    
   115   58  120 1    
   116   58  121 1    
   117   59   60 am   BACKBONE|DICT|INTERRES
   118   59  122 1    
   119   60   61 2    
   120   60   62 1    
   121   62   63 1    
   122   62   64 1    
   123   62  123 1    
   124   63  124 1    
   125   63  125 1    
   126   63  126 1    
   127   64   65 am   BACKBONE|DICT|INTERRES
   128   64  127 1    
   129   65   66 2    
@<TRIPOS>SUBSTRUCTURE
     1 UNK         1 GROUP             0       ****    0 ROOT    
