@<TRIPOS>MOLECULE
3R135
127   129    1
SMALL
USER_CHARGES


@<TRIPOS>ATOM
      1 CA        -83.2002   23.4198  -73.3273 C.3       0 UNK        -0.1998 
      2 C         -81.7950   23.1164  -72.8151 C.2       0 UNK         0.4909 
      3 O         -81.3696   21.9654  -72.8769 O.2       0 UNK        -0.5240 
      4 N         -81.0347   24.0912  -72.2984 N.am      1 UNK        -0.4739 
      5 CA        -81.3231   25.5265  -72.2309 C.3       1 UNK         0.0864 
      6 C6        -80.6345   26.1426  -70.9878 C.3       11 UNK        -0.0881 
      7 S7        -81.2240   27.8247  -70.6099 S.3       11 UNK        -0.2682 
      8 C8        -79.7460   28.5471  -69.8255 C.3       11 UNK         0.0289 
      9 C9        -78.6389   28.8469  -70.8280 C.ar      11 UNK        -0.0687 
     10 C10       -78.8226   29.8436  -71.7904 C.ar      11 UNK        -0.0823 
     11 C11       -77.8080   30.1571  -72.6994 C.ar      11 UNK        -0.0830 
     12 C12       -76.5870   29.4801  -72.6151 C.ar      11 UNK        -0.1021 
     13 C13       -76.3997   28.4569  -71.6813 C.ar      11 UNK        -0.0753 
     14 C14       -77.4280   28.1471  -70.7859 C.ar      11 UNK        -0.0933 
     15 C15       -75.1078   27.6516  -71.6818 C.3       11 UNK         0.0166 
     16 S16       -73.9147   28.1745  -70.4075 S.3       11 UNK        -0.2615 
     17 C17       -73.5483   29.9169  -70.8302 C.3       11 UNK        -0.0865 
     18 CA        -72.3969   30.1259  -71.8512 C.3       10 UNK         0.0862 
     19 C         -71.0010   29.6874  -71.3148 C.2       10 UNK         0.5551 
     20 N         -70.2144   28.9058  -72.0468 N.am      10 UNK        -0.7319 
     21 O         -70.6136   30.0834  -70.2181 O.2       10 UNK        -0.5018 
     22 N         -72.7437   29.5743  -73.1676 N.am      10 UNK        -0.4509 
     23 C         -72.3880   30.1019  -74.3439 C.2       10 UNK         0.4899 
     24 O         -71.7686   31.1602  -74.4623 O.2       10 UNK        -0.4839 
     25 CA        -72.8062   29.3032  -75.5944 C.3       9 UNK         0.0222 
     26 CB        -72.0701   29.7599  -76.8712 C.3       9 UNK        -0.1966 
     27 N         -72.7001   27.8435  -75.4400 N.am      9 UNK        -0.4218 
     28 C         -71.6010   27.1499  -75.1035 C.2       9 UNK         0.5020 
     29 O         -70.5263   27.6694  -74.7997 O.2       9 UNK        -0.5274 
     30 CA        -71.7140   25.6199  -75.0733 C.3       8 UNK         0.0270 
     31 CB        -72.0625   25.1478  -73.6506 C.3       8 UNK        -0.1976 
     32 N         -72.7191   25.1094  -76.0105 N.am      8 UNK        -0.4313 
     33 C         -72.4504   24.5856  -77.2125 C.2       8 UNK         0.5041 
     34 O         -71.3224   24.5465  -77.7066 O.2       8 UNK        -0.5577 
     35 CA        -73.6248   23.9471  -77.9737 C.3       7 UNK         0.0284 
     36 CB        -74.0775   22.6501  -77.2817 C.3       7 UNK        -0.1958 
     37 N         -74.7774   24.8330  -78.1565 N.am      7 UNK        -0.4454 
     38 C         -74.8322   25.8216  -79.0607 C.2       7 UNK         0.5089 
     39 O         -73.8820   26.1571  -79.7683 O.2       7 UNK        -0.5125 
     40 CA        -76.1832   26.5436  -79.2253 C.3       6 UNK         0.0408 
     41 CB        -77.1878   25.6747  -79.9993 C.3       6 UNK        -0.1791 
     42 N         -76.7582   26.9428  -77.9412 N.am      6 UNK        -0.4762 
     43 C         -76.2859   27.9510  -77.1964 C.2       6 UNK         0.5007 
     44 O         -75.3965   28.7098  -77.5783 O.2       6 UNK        -0.5032 
     45 CA        -76.8596   28.1118  -75.7721 C.3       5 UNK         0.0783 
     46 C46       -78.0333   29.1243  -75.7144 C.3       11 UNK        -0.0857 
     47 S47       -77.4151   30.8197  -75.4260 S.3       11 UNK        -0.2512 
     48 C48       -78.0576   31.2267  -73.7617 C.3       11 UNK         0.0225 
     49 N         -77.1932   26.8267  -75.1527 N.am      5 UNK        -0.4615 
     50 C         -76.2933   25.8839  -74.8471 C.2       4 UNK         0.5053 
     51 O         -75.0808   26.0436  -74.9732 O.2       4 UNK        -0.5105 
     52 CA        -76.8254   24.5196  -74.3829 C.3       4 UNK         0.0263 
     53 CB        -76.9989   24.4788  -72.8571 C.3       4 UNK        -0.1981 
     54 N         -78.0861   24.1807  -75.0460 N.am      4 UNK        -0.4224 
     55 C         -78.1805   23.8266  -76.3359 C.2       3 UNK         0.4895 
     56 O         -77.2058   23.6803  -77.0724 O.2       3 UNK        -0.5091 
     57 CA        -79.5953   23.6565  -76.9166 C.3       3 UNK         0.0250 
     58 CB        -80.1257   22.2409  -76.6413 C.3       3 UNK        -0.1996 
     59 N         -80.5440   24.6460  -76.3992 N.am      3 UNK        -0.4254 
     60 C         -80.4730   25.9648  -76.6345 C.2       2 UNK         0.5004 
     61 O         -79.6421   26.4806  -77.3808 O.2       2 UNK        -0.5226 
     62 CA        -81.4535   26.8647  -75.8565 C.3       2 UNK         0.0269 
     63 CB        -82.7588   27.0467  -76.6465 C.3       2 UNK        -0.1926 
     64 N         -81.7624   26.3783  -74.5032 N.am      2 UNK        -0.4687 
     65 C         -80.8445   26.1639  -73.5486 C.2       1 UNK         0.5165 
     66 O         -79.6432   26.3690  -73.7184 O.2       1 UNK        -0.5079 
     67 H67       -83.7295   22.4911  -73.5404 H         1 UNK         0.0900 
     68 H68       -83.1687   23.9949  -74.2504 H         1 UNK         0.0900 
     69 H69       -83.7879   23.9595  -72.5858 H         1 UNK         0.0900 
     70 H70       -80.1157   23.8363  -71.9663 H         1 UNK         0.2959 
     71 H71       -82.3965   25.6903  -72.1267 H         1 UNK         0.1079 
     72 H72       -80.8444   25.5306  -70.1089 H         1 UNK         0.0837 
     73 H73       -79.5486   26.1389  -71.0971 H         1 UNK         0.0837 
     74 H74       -80.0325   29.4755  -69.3297 H         1 UNK         0.0685 
     75 H75       -79.3921   27.8787  -69.0389 H         1 UNK         0.0685 
     76 H76       -79.7660   30.3711  -71.8310 H         1 UNK         0.1434 
     77 H77       -75.7881   29.7337  -73.2966 H         1 UNK         0.1329 
     78 H78       -77.2827   27.3615  -70.0573 H         1 UNK         0.1335 
     79 H79       -74.6409   27.6794  -72.6658 H         1 UNK         0.0680 
     80 H80       -75.3449   26.6032  -71.5030 H         1 UNK         0.0680 
     81 H81       -74.4531   30.4068  -71.1880 H         1 UNK         0.1032 
     82 H82       -73.3086   30.4341  -69.8994 H         1 UNK         0.1032 
     83 H83       -72.3081   31.2075  -71.9690 H         1 UNK         0.0461 
     84 H84       -70.4891   28.5978  -72.9724 H         1 UNK         0.3453 
     85 H85       -69.3131   28.6422  -71.6823 H         1 UNK         0.3453 
     86 H86       -73.1990   28.6753  -73.1580 H         1 UNK         0.2984 
     87 H87       -73.8636   29.5258  -75.7264 H         1 UNK         0.0554 
     88 H88       -72.4257   29.2150  -77.7460 H         1 UNK         0.0847 
     89 H89       -70.9932   29.6072  -76.7935 H         1 UNK         0.0847 
     90 H90       -72.2377   30.8201  -77.0642 H         1 UNK         0.0847 
     91 H91       -73.5483   27.3140  -75.6085 H         1 UNK         0.3141 
     92 H92       -70.7322   25.2146  -75.3274 H         1 UNK         0.0743 
     93 H93       -71.3144   25.4874  -72.9327 H         1 UNK         0.0784 
     94 H94       -73.0281   25.5292  -73.3170 H         1 UNK         0.0784 
     95 H95       -72.0952   24.0598  -73.5926 H         1 UNK         0.0784 
     96 H96       -73.6875   25.1772  -75.7027 H         1 UNK         0.3213 
     97 H97       -73.2555   23.6730  -78.9647 H         1 UNK         0.0855 
     98 H98       -74.5002   22.8407  -76.2951 H         1 UNK         0.0814 
     99 H99       -73.2403   21.9631  -77.1515 H         1 UNK         0.0814 
    100 H100      -74.8333   22.1309  -77.8714 H         1 UNK         0.0814 
    101 H101      -75.6286   24.5838  -77.6583 H         1 UNK         0.3105 
    102 H102      -76.0088   27.4459  -79.8156 H         1 UNK         0.0547 
    103 H103      -78.1274   26.2040  -80.1588 H         1 UNK         0.0837 
    104 H104      -76.7945   25.4081  -80.9811 H         1 UNK         0.0837 
    105 H105      -77.4147   24.7452  -79.4779 H         1 UNK         0.0837 
    106 H106      -77.5526   26.4145  -77.5966 H         1 UNK         0.3020 
    107 H107      -76.0357   28.5048  -75.1769 H         1 UNK         0.1245 
    108 H108      -78.7265   28.8640  -74.9131 H         1 UNK         0.0781 
    109 H109      -78.6303   29.1063  -76.6283 H         1 UNK         0.0781 
    110 H110      -77.6035   32.1612  -73.4301 H         1 UNK         0.0836 
    111 H111      -79.1269   31.4224  -73.8562 H         1 UNK         0.0836 
    112 H112      -78.1679   26.6583  -74.9227 H         1 UNK         0.3022 
    113 H113      -76.0872   23.7625  -74.6542 H         1 UNK         0.0747 
    114 H114      -77.4661   23.5490  -72.5329 H         1 UNK         0.0793 
    115 H115      -77.6028   25.3083  -72.4888 H         1 UNK         0.0793 
    116 H116      -76.0292   24.5375  -72.3625 H         1 UNK         0.0793 
    117 H117      -78.9325   24.3620  -74.5256 H         1 UNK         0.3047 
    118 H118      -79.5255   23.7919  -77.9982 H         1 UNK         0.0822 
    119 H119      -79.4461   21.4867  -77.0409 H         1 UNK         0.0807 
    120 H120      -81.0959   22.0815  -77.1121 H         1 UNK         0.0807 
    121 H121      -80.2343   22.0472  -75.5732 H         1 UNK         0.0807 
    122 H122      -81.2702   24.3081  -75.7867 H         1 UNK         0.2946 
    123 H123      -80.9769   27.8421  -75.7535 H         1 UNK         0.1144 
    124 H124      -82.5574   27.4252  -77.6498 H         1 UNK         0.0793 
    125 H125      -83.4207   27.7635  -76.1602 H         1 UNK         0.0793 
    126 H126      -83.3015   26.1069  -76.7557 H         1 UNK         0.0793 
    127 H127      -82.7365   26.2074  -74.2995 H         1 UNK         0.2896 
@<TRIPOS>BOND
     1    1    2 1    
     2    1   67 1    
     3    1   68 1    
     4    1   69 1    
     5    2    3 2    
     6    2    4 am   BACKBONE|DICT|INTERRES
     7    4    5 1    
     8    4   70 1    
     9    5    6 1    
    10    5   65 1    
    11    5   71 1    
    12    6    7 1    
    13    6   72 1    
    14    6   73 1    
    15    7    8 1    
    16    8    9 1    
    17    8   74 1    
    18    8   75 1    
    19    9   10 ar   
    20    9   14 ar   
    21   10   11 ar   
    22   10   76 1    
    23   11   12 ar   
    24   11   48 1    
    25   12   13 ar   
    26   12   77 1    
    27   13   14 ar   
    28   13   15 1    
    29   14   78 1    
    30   15   16 1    
    31   15   79 1    
    32   15   80 1    
    33   16   17 1    
    34   17   18 1    
    35   17   81 1    
    36   17   82 1    
    37   18   19 1    
    38   18   22 1    
    39   18   83 1    
    40   19   20 am   BACKBONE|DICT|INTERRES
    41   19   21 2    
    42   20   84 1    
    43   20   85 1    
    44   22   23 am   BACKBONE|DICT|INTERRES
    45   22   86 1    
    46   23   24 2    
    47   23   25 1    
    48   25   26 1    
    49   25   27 1    
    50   25   87 1    
    51   26   88 1    
    52   26   89 1    
    53   26   90 1    
    54   27   28 am   BACKBONE|DICT|INTERRES
    55   27   91 1    
    56   28   29 2    
    57   28   30 1    
    58   30   31 1    
    59   30   32 1    
    60   30   92 1    
    61   31   93 1    
    62   31   94 1    
    63   31   95 1    
    64   32   33 am   BACKBONE|DICT|INTERRES
    65   32   96 1    
    66   33   34 2    
    67   33   35 1    
    68   35   36 1    
    69   35   37 1    
    70   35   97 1    
    71   36   98 1    
    72   36   99 1    
    73   36  100 1    
    74   37   38 am   BACKBONE|DICT|INTERRES
    75   37  101 1    
    76   38   39 2    
    77   38   40 1    
    78   40   41 1    
    79   40   42 1    
    80   40  102 1    
    81   41  103 1    
    82   41  104 1    
    83   41  105 1    
    84   42   43 am   BACKBONE|DICT|INTERRES
    85   42  106 1    
    86   43   44 2    
    87   43   45 1    
    88   45   46 1    
    89   45   49 1    
    90   45  107 1    
    91   46   47 1    
    92   46  108 1    
    93   46  109 1    
    94   47   48 1    
    95   48  110 1    
    96   48  111 1    
    97   49   50 am   BACKBONE|DICT|INTERRES
    98   49  112 1    
    99   50   51 2    
   100   50   52 1    
   101   52   53 1    
   102   52   54 1    
   103   52  113 1    
   104   53  114 1    
   105   53  115 1    
   106   53  116 1    
   107   54   55 am   BACKBONE|DICT|INTERRES
   108   54  117 1    
   109   55   56 2    
   110   55   57 1    
   111   57   58 1    
   112   57   59 1    
   113   57  118 1    
   114   58  119 1    
   115   58  120 1    
   116   58  121 1    
   117   59   60 am   BACKBONE|DICT|INTERRES
   118   59  122 1    
   119   60   61 2    
   120   60   62 1    
   121   62   63 1    
   122   62   64 1    
   123   62  123 1    
   124   63  124 1    
   125   63  125 1    
   126   63  126 1    
   127   64   65 am   BACKBONE|DICT|INTERRES
   128   64  127 1    
   129   65   66 2    
@<TRIPOS>SUBSTRUCTURE
     1 UNK         1 GROUP             0       ****    0 ROOT    
