@<TRIPOS>MOLECULE
3R135
127   129    1
SMALL
USER_CHARGES


@<TRIPOS>ATOM
      1 CA        -83.2958   25.7641  -73.8107 C.3       0 UNK        -0.1998 
      2 C         -82.2873   26.1900  -74.8659 C.2       0 UNK         0.4909 
      3 O         -82.4980   25.9213  -76.0487 O.2       0 UNK        -0.5240 
      4 N         -81.1943   26.8415  -74.4419 N.am      1 UNK        -0.4739 
      5 CA        -80.1124   27.3849  -75.2748 C.3       1 UNK         0.0864 
      6 C6        -79.0290   28.0813  -74.4143 C.3       11 UNK        -0.0881 
      7 S7        -79.6630   29.5619  -73.5542 S.3       11 UNK        -0.2682 
      8 C8        -79.4305   29.1417  -71.7946 C.3       11 UNK         0.0289 
      9 C9        -77.9685   28.8977  -71.4410 C.ar      11 UNK        -0.0687 
     10 C10       -77.5487   27.6287  -71.0361 C.ar      11 UNK        -0.0823 
     11 C11       -76.2038   27.3849  -70.7462 C.ar      11 UNK        -0.0830 
     12 C12       -75.2799   28.4286  -70.8396 C.ar      11 UNK        -0.1021 
     13 C13       -75.6864   29.7167  -71.2179 C.ar      11 UNK        -0.0753 
     14 C14       -77.0353   29.9363  -71.5186 C.ar      11 UNK        -0.0933 
     15 C15       -74.7179   30.8966  -71.3380 C.3       11 UNK         0.0166 
     16 S16       -73.0482   30.6175  -70.6533 S.3       11 UNK        -0.2615 
     17 C17       -72.2566   32.2386  -70.9422 C.3       11 UNK        -0.0865 
     18 CA        -71.0499   32.1851  -71.9156 C.3       10 UNK         0.0862 
     19 C         -69.8401   31.4021  -71.3199 C.2       10 UNK         0.5551 
     20 N         -69.3726   30.3249  -71.9394 N.am      10 UNK        -0.7319 
     21 O         -69.3091   31.7916  -70.2824 O.2       10 UNK        -0.5018 
     22 N         -71.4598   31.7880  -73.2738 N.am      10 UNK        -0.4509 
     23 C         -70.7579   32.0399  -74.3854 C.2       10 UNK         0.4899 
     24 O         -69.6871   32.6496  -74.3892 O.2       10 UNK        -0.4839 
     25 CA        -71.3477   31.5159  -75.7087 C.3       9 UNK         0.0222 
     26 CB        -70.4401   31.8077  -76.9193 C.3       9 UNK        -0.1966 
     27 N         -71.6202   30.0769  -75.6586 N.am      9 UNK        -0.4218 
     28 C         -72.7350   29.5224  -75.1683 C.2       9 UNK         0.5020 
     29 O         -73.6383   30.1656  -74.6302 O.2       9 UNK        -0.5274 
     30 CA        -72.8499   27.9915  -75.2770 C.3       8 UNK         0.0270 
     31 CB        -72.7159   27.3463  -73.8873 C.3       8 UNK        -0.1976 
     32 N         -74.1182   27.5728  -75.8795 N.am      8 UNK        -0.4313 
     33 C         -74.5577   27.9263  -77.0964 C.2       8 UNK         0.5041 
     34 O         -73.9055   28.6045  -77.8936 O.2       8 UNK        -0.5577 
     35 CA        -75.9602   27.4156  -77.4808 C.3       7 UNK         0.0284 
     36 CB        -76.3998   27.8469  -78.8965 C.3       7 UNK        -0.1958 
     37 N         -76.0984   25.9645  -77.3111 N.am      7 UNK        -0.4454 
     38 C         -75.3791   24.9972  -77.9054 C.2       7 UNK         0.5089 
     39 O         -74.4893   25.2051  -78.7313 O.2       7 UNK        -0.5125 
     40 CA        -75.7331   23.5453  -77.5139 C.3       6 UNK         0.0408 
     41 CB        -74.5572   22.5671  -77.7218 C.3       6 UNK        -0.1791 
     42 N         -76.2824   23.4280  -76.1552 N.am      6 UNK        -0.4762 
     43 C         -75.6687   23.7693  -75.0094 C.2       6 UNK         0.5007 
     44 O         -74.5053   24.1685  -74.9616 O.2       6 UNK        -0.5032 
     45 CA        -76.4966   23.7041  -73.7107 C.3       5 UNK         0.0783 
     46 C46       -76.4104   25.0272  -72.9049 C.3       11 UNK        -0.0857 
     47 S47       -75.0039   25.0940  -71.7469 S.3       11 UNK        -0.2512 
     48 C48       -75.7433   25.9903  -70.3431 C.3       11 UNK         0.0225 
     49 N         -77.9035   23.3825  -73.9739 N.am      5 UNK        -0.4615 
     50 C         -78.6052   22.4710  -73.2919 C.2       4 UNK         0.5053 
     51 O         -78.1019   21.6511  -72.5237 O.2       4 UNK        -0.5105 
     52 CA        -80.1313   22.5098  -73.4396 C.3       4 UNK         0.0263 
     53 CB        -80.7160   23.5477  -72.4668 C.3       4 UNK        -0.1981 
     54 N         -80.5753   22.8224  -74.8007 N.am      4 UNK        -0.4224 
     55 C         -80.9976   21.9031  -75.6799 C.2       3 UNK         0.4895 
     56 O         -80.9546   20.6890  -75.4778 O.2       3 UNK        -0.5091 
     57 CA        -81.6076   22.4143  -76.9957 C.3       3 UNK         0.0250 
     58 CB        -83.1350   22.5319  -76.8635 C.3       3 UNK        -0.1996 
     59 N         -81.0614   23.7047  -77.4192 N.am      3 UNK        -0.4254 
     60 C         -79.9022   23.8413  -78.0774 C.2       2 UNK         0.5004 
     61 O         -79.1761   22.8978  -78.3882 O.2       2 UNK        -0.5226 
     62 CA        -79.4653   25.2709  -78.4392 C.3       2 UNK         0.0269 
     63 CB        -80.0108   25.6655  -79.8206 C.3       2 UNK        -0.1926 
     64 N         -79.8681   26.2783  -77.4533 N.am      2 UNK        -0.4687 
     65 C         -79.4786   26.3024  -76.1718 C.2       1 UNK         0.5165 
     66 O         -78.6788   25.4969  -75.6878 O.2       1 UNK        -0.5079 
     67 H67       -83.4969   24.6965  -73.8920 H         1 UNK         0.0900 
     68 H68       -82.9421   25.9681  -72.8003 H         1 UNK         0.0900 
     69 H69       -84.2346   26.2976  -73.9566 H         1 UNK         0.0900 
     70 H70       -81.1010   27.0367  -73.4562 H         1 UNK         0.2959 
     71 H71       -80.5566   28.1396  -75.9274 H         1 UNK         0.1079 
     72 H72       -78.1960   28.4132  -75.0358 H         1 UNK         0.0837 
     73 H73       -78.6043   27.3787  -73.6959 H         1 UNK         0.0837 
     74 H74       -80.0425   28.2715  -71.5528 H         1 UNK         0.0685 
     75 H75       -79.8110   29.9618  -71.1842 H         1 UNK         0.0685 
     76 H76       -78.2679   26.8247  -70.9632 H         1 UNK         0.1434 
     77 H77       -74.2430   28.2172  -70.6226 H         1 UNK         0.1329 
     78 H78       -77.3625   30.9196  -71.8285 H         1 UNK         0.1335 
     79 H79       -75.1529   31.7584  -70.8295 H         1 UNK         0.0680 
     80 H80       -74.6276   31.1682  -72.3898 H         1 UNK         0.0680 
     81 H81       -72.9961   32.9460  -71.3203 H         1 UNK         0.1032 
     82 H82       -71.9450   32.6416  -69.9767 H         1 UNK         0.1032 
     83 H83       -70.6928   33.2136  -71.9997 H         1 UNK         0.0461 
     84 H84       -69.8000   30.0060  -72.7929 H         1 UNK         0.3453 
     85 H85       -68.5867   29.8302  -71.5483 H         1 UNK         0.3453 
     86 H86       -72.3203   31.2581  -73.3557 H         1 UNK         0.2984 
     87 H87       -72.2869   32.0493  -75.8710 H         1 UNK         0.0554 
     88 H88       -70.2568   32.8781  -77.0224 H         1 UNK         0.0847 
     89 H89       -70.8989   31.4709  -77.8493 H         1 UNK         0.0847 
     90 H90       -69.4698   31.3182  -76.8266 H         1 UNK         0.0847 
     91 H91       -70.9141   29.4738  -76.0565 H         1 UNK         0.3141 
     92 H92       -72.0462   27.6157  -75.9132 H         1 UNK         0.0743 
     93 H93       -71.7697   27.6175  -73.4174 H         1 UNK         0.0784 
     94 H94       -73.5149   27.6662  -73.2165 H         1 UNK         0.0784 
     95 H95       -72.7479   26.2579  -73.9480 H         1 UNK         0.0784 
     96 H96       -74.7065   26.9848  -75.3084 H         1 UNK         0.3213 
     97 H97       -76.6509   27.8777  -76.7753 H         1 UNK         0.0855 
     98 H98       -75.7518   27.4305  -79.6682 H         1 UNK         0.0814 
     99 H99       -76.3693   28.9322  -78.9996 H         1 UNK         0.0814 
    100 H100      -77.4210   27.5333  -79.1093 H         1 UNK         0.0814 
    101 H101      -76.8053   25.6657  -76.6482 H         1 UNK         0.3105 
    102 H102      -76.5304   23.2400  -78.1916 H         1 UNK         0.0547 
    103 H103      -74.8319   21.5506  -77.4411 H         1 UNK         0.0837 
    104 H104      -73.6823   22.8529  -77.1373 H         1 UNK         0.0837 
    105 H105      -74.2515   22.5404  -78.7683 H         1 UNK         0.0837 
    106 H106      -77.2380   23.1034  -76.0964 H         1 UNK         0.3020 
    107 H107      -76.0451   22.9021  -73.1221 H         1 UNK         0.1245 
    108 H108      -77.3166   25.1376  -72.3091 H         1 UNK         0.0781 
    109 H109      -76.3860   25.9036  -73.5558 H         1 UNK         0.0781 
    110 H110      -75.0056   26.0649  -69.5427 H         1 UNK         0.0836 
    111 H111      -76.5735   25.4101  -69.9369 H         1 UNK         0.0836 
    112 H112      -78.3841   24.0398  -74.5831 H         1 UNK         0.3022 
    113 H113      -80.5120   21.5307  -73.1398 H         1 UNK         0.0747 
    114 H114      -81.8053   23.5230  -72.4724 H         1 UNK         0.0793 
    115 H115      -80.3983   23.3452  -71.4428 H         1 UNK         0.0793 
    116 H116      -80.3960   24.5612  -72.7106 H         1 UNK         0.0793 
    117 H117      -80.6147   23.7947  -75.0669 H         1 UNK         0.3047 
    118 H118      -81.3949   21.6705  -77.7671 H         1 UNK         0.0822 
    119 H119      -83.5920   22.8322  -77.8065 H         1 UNK         0.0807 
    120 H120      -83.4221   23.2614  -76.1056 H         1 UNK         0.0807 
    121 H121      -83.5774   21.5759  -76.5800 H         1 UNK         0.0807 
    122 H122      -81.5924   24.5363  -77.1738 H         1 UNK         0.2946 
    123 H123      -78.3779   25.2662  -78.4994 H         1 UNK         0.1144 
    124 H124      -79.6362   26.6402  -80.1332 H         1 UNK         0.0793 
    125 H125      -81.1009   25.7059  -79.8281 H         1 UNK         0.0793 
    126 H126      -79.7061   24.9448  -80.5810 H         1 UNK         0.0793 
    127 H127      -80.5661   26.9436  -77.7555 H         1 UNK         0.2896 
@<TRIPOS>BOND
     1    1    2 1    
     2    1   67 1    
     3    1   68 1    
     4    1   69 1    
     5    2    3 2    
     6    2    4 am   BACKBONE|DICT|INTERRES
     7    4    5 1    
     8    4   70 1    
     9    5    6 1    
    10    5   65 1    
    11    5   71 1    
    12    6    7 1    
    13    6   72 1    
    14    6   73 1    
    15    7    8 1    
    16    8    9 1    
    17    8   74 1    
    18    8   75 1    
    19    9   10 ar   
    20    9   14 ar   
    21   10   11 ar   
    22   10   76 1    
    23   11   12 ar   
    24   11   48 1    
    25   12   13 ar   
    26   12   77 1    
    27   13   14 ar   
    28   13   15 1    
    29   14   78 1    
    30   15   16 1    
    31   15   79 1    
    32   15   80 1    
    33   16   17 1    
    34   17   18 1    
    35   17   81 1    
    36   17   82 1    
    37   18   19 1    
    38   18   22 1    
    39   18   83 1    
    40   19   20 am   BACKBONE|DICT|INTERRES
    41   19   21 2    
    42   20   84 1    
    43   20   85 1    
    44   22   23 am   BACKBONE|DICT|INTERRES
    45   22   86 1    
    46   23   24 2    
    47   23   25 1    
    48   25   26 1    
    49   25   27 1    
    50   25   87 1    
    51   26   88 1    
    52   26   89 1    
    53   26   90 1    
    54   27   28 am   BACKBONE|DICT|INTERRES
    55   27   91 1    
    56   28   29 2    
    57   28   30 1    
    58   30   31 1    
    59   30   32 1    
    60   30   92 1    
    61   31   93 1    
    62   31   94 1    
    63   31   95 1    
    64   32   33 am   BACKBONE|DICT|INTERRES
    65   32   96 1    
    66   33   34 2    
    67   33   35 1    
    68   35   36 1    
    69   35   37 1    
    70   35   97 1    
    71   36   98 1    
    72   36   99 1    
    73   36  100 1    
    74   37   38 am   BACKBONE|DICT|INTERRES
    75   37  101 1    
    76   38   39 2    
    77   38   40 1    
    78   40   41 1    
    79   40   42 1    
    80   40  102 1    
    81   41  103 1    
    82   41  104 1    
    83   41  105 1    
    84   42   43 am   BACKBONE|DICT|INTERRES
    85   42  106 1    
    86   43   44 2    
    87   43   45 1    
    88   45   46 1    
    89   45   49 1    
    90   45  107 1    
    91   46   47 1    
    92   46  108 1    
    93   46  109 1    
    94   47   48 1    
    95   48  110 1    
    96   48  111 1    
    97   49   50 am   BACKBONE|DICT|INTERRES
    98   49  112 1    
    99   50   51 2    
   100   50   52 1    
   101   52   53 1    
   102   52   54 1    
   103   52  113 1    
   104   53  114 1    
   105   53  115 1    
   106   53  116 1    
   107   54   55 am   BACKBONE|DICT|INTERRES
   108   54  117 1    
   109   55   56 2    
   110   55   57 1    
   111   57   58 1    
   112   57   59 1    
   113   57  118 1    
   114   58  119 1    
   115   58  120 1    
   116   58  121 1    
   117   59   60 am   BACKBONE|DICT|INTERRES
   118   59  122 1    
   119   60   61 2    
   120   60   62 1    
   121   62   63 1    
   122   62   64 1    
   123   62  123 1    
   124   63  124 1    
   125   63  125 1    
   126   63  126 1    
   127   64   65 am   BACKBONE|DICT|INTERRES
   128   64  127 1    
   129   65   66 2    
@<TRIPOS>SUBSTRUCTURE
     1 UNK         1 GROUP             0       ****    0 ROOT    
