@<TRIPOS>MOLECULE
3R135
127   129    1
SMALL
USER_CHARGES


@<TRIPOS>ATOM
      1 CA        -78.6666   29.5539  -77.5870 C.3       0 UNK        -0.1998 
      2 C         -78.8696   28.5998  -76.4198 C.2       0 UNK         0.4909 
      3 O         -78.1499   27.6092  -76.3089 O.2       0 UNK        -0.5240 
      4 N         -79.8414   28.8959  -75.5485 N.am      1 UNK        -0.4739 
      5 CA        -80.2144   28.0619  -74.4010 C.3       1 UNK         0.0864 
      6 C6        -81.0916   28.8326  -73.3795 C.3       11 UNK        -0.0881 
      7 S7        -80.3800   30.4247  -72.8354 S.3       11 UNK        -0.2682 
      8 C8        -79.6886   30.0102  -71.2032 C.3       11 UNK         0.0289 
      9 C9        -78.3318   29.3353  -71.3284 C.ar      11 UNK        -0.0687 
     10 C10       -78.2106   27.9494  -71.1947 C.ar      11 UNK        -0.0823 
     11 C11       -76.9622   27.3300  -71.3230 C.ar      11 UNK        -0.0830 
     12 C12       -75.8301   28.1117  -71.5740 C.ar      11 UNK        -0.1021 
     13 C13       -75.9363   29.5016  -71.6813 C.ar      11 UNK        -0.0753 
     14 C14       -77.1903   30.1068  -71.5640 C.ar      11 UNK        -0.0933 
     15 C15       -74.6972   30.3485  -71.9206 C.3       11 UNK         0.0166 
     16 S16       -73.6780   30.4681  -70.4176 S.3       11 UNK        -0.2615 
     17 C17       -72.4765   31.7686  -70.8784 C.3       11 UNK        -0.0865 
     18 CA        -71.1529   31.2529  -71.5063 C.3       10 UNK         0.0862 
     19 C         -70.2854   30.4252  -70.5151 C.2       10 UNK         0.5551 
     20 N         -69.6740   31.0808  -69.5377 N.am      10 UNK        -0.7319 
     21 O         -70.1741   29.2037  -70.6082 O.2       10 UNK        -0.5018 
     22 N         -71.4098   30.5652  -72.7759 N.am      10 UNK        -0.4509 
     23 C         -70.5146   30.3594  -73.7480 C.2       10 UNK         0.4899 
     24 O         -69.3485   30.7530  -73.7045 O.2       10 UNK        -0.4839 
     25 CA        -71.0061   29.5990  -74.9948 C.3       9 UNK         0.0222 
     26 CB        -70.6043   28.1177  -74.9105 C.3       9 UNK        -0.1966 
     27 N         -72.4532   29.6885  -75.2249 N.am      9 UNK        -0.4218 
     28 C         -73.1330   30.8022  -75.5294 C.2       9 UNK         0.5020 
     29 O         -72.6111   31.9112  -75.6552 O.2       9 UNK        -0.5274 
     30 CA        -74.6489   30.6281  -75.7525 C.3       8 UNK         0.0270 
     31 CB        -75.3908   31.9706  -75.8900 C.3       8 UNK        -0.1976 
     32 N         -74.9228   29.8030  -76.9304 N.am      8 UNK        -0.4313 
     33 C         -74.8107   28.4702  -76.9718 C.2       8 UNK         0.5041 
     34 O         -74.4487   27.7837  -76.0107 O.2       8 UNK        -0.5577 
     35 CA        -75.0996   27.8065  -78.3202 C.3       7 UNK         0.0284 
     36 CB        -73.8573   27.8360  -79.2281 C.3       7 UNK        -0.1958 
     37 N         -75.5003   26.4276  -78.0764 N.am      7 UNK        -0.4454 
     38 C         -76.3335   25.7090  -78.8317 C.2       7 UNK         0.5089 
     39 O         -76.8094   26.1178  -79.8922 O.2       7 UNK        -0.5125 
     40 CA        -76.7224   24.3022  -78.3394 C.3       6 UNK         0.0408 
     41 CB        -75.7829   23.2290  -78.9213 C.3       6 UNK        -0.1791 
     42 N         -76.8618   24.1610  -76.8839 N.am      6 UNK        -0.4762 
     43 C         -75.9250   24.2006  -75.9231 C.2       6 UNK         0.5007 
     44 O         -74.7302   24.4129  -76.1277 O.2       6 UNK        -0.5032 
     45 CA        -76.4207   23.9296  -74.4921 C.3       5 UNK         0.0783 
     46 C46       -77.1033   25.1929  -73.9051 C.3       11 UNK        -0.0857 
     47 S47       -77.8986   24.8912  -72.2903 S.3       11 UNK        -0.2512 
     48 C48       -76.8266   25.8223  -71.1526 C.3       11 UNK         0.0225 
     49 N         -77.2988   22.7556  -74.5001 N.am      5 UNK        -0.4615 
     50 C         -76.8778   21.4840  -74.4876 C.2       4 UNK         0.5053 
     51 O         -75.6938   21.1590  -74.3977 O.2       4 UNK        -0.5105 
     52 CA        -77.9502   20.3811  -74.5780 C.3       4 UNK         0.0263 
     53 CB        -78.2986   19.8614  -73.1736 C.3       4 UNK        -0.1981 
     54 N         -79.1785   20.8250  -75.2408 N.am      4 UNK        -0.4224 
     55 C         -79.3063   21.0303  -76.5601 C.2       3 UNK         0.4895 
     56 O         -78.4322   20.7624  -77.3843 O.2       3 UNK        -0.5091 
     57 CA        -80.6232   21.6759  -77.0377 C.3       3 UNK         0.0250 
     58 CB        -81.6308   20.5946  -77.4599 C.3       3 UNK        -0.1996 
     59 N         -81.2464   22.5642  -76.0451 N.am      3 UNK        -0.4254 
     60 C         -80.6651   23.6626  -75.5430 C.2       2 UNK         0.5004 
     61 O         -79.5432   24.0434  -75.8819 O.2       2 UNK        -0.5226 
     62 CA        -81.4250   24.3990  -74.4263 C.3       2 UNK         0.0269 
     63 CB        -81.4465   23.5533  -73.1405 C.3       2 UNK        -0.1926 
     64 N         -80.8148   25.6960  -74.1188 N.am      2 UNK        -0.4687 
     65 C         -80.9588   26.7933  -74.8720 C.2       1 UNK         0.5165 
     66 O         -81.6923   26.8444  -75.8641 O.2       1 UNK        -0.5079 
     67 H67       -78.5887   28.9945  -78.5192 H         1 UNK         0.0900 
     68 H68       -77.7488   30.1233  -77.4509 H         1 UNK         0.0900 
     69 H69       -79.4930   30.2578  -77.6837 H         1 UNK         0.0900 
     70 H70       -80.4078   29.7199  -75.6879 H         1 UNK         0.2959 
     71 H71       -79.2916   27.7533  -73.9040 H         1 UNK         0.1079 
     72 H72       -82.0695   29.0528  -73.8130 H         1 UNK         0.0837 
     73 H73       -81.2905   28.2112  -72.5044 H         1 UNK         0.0837 
     74 H74       -79.5795   30.9307  -70.6278 H         1 UNK         0.0685 
     75 H75       -80.3885   29.3875  -70.6439 H         1 UNK         0.0685 
     76 H76       -79.0875   27.3494  -70.9936 H         1 UNK         0.1434 
     77 H77       -74.8588   27.6443  -71.6634 H         1 UNK         0.1329 
     78 H78       -77.2817   31.1806  -71.6549 H         1 UNK         0.1335 
     79 H79       -74.9762   31.3475  -72.2601 H         1 UNK         0.0680 
     80 H80       -74.1101   29.8956  -72.7176 H         1 UNK         0.0680 
     81 H81       -72.2593   32.3525  -69.9823 H         1 UNK         0.1032 
     82 H82       -72.9547   32.4727  -71.5612 H         1 UNK         0.1032 
     83 H83       -70.5616   32.1369  -71.7549 H         1 UNK         0.0461 
     84 H84       -69.7544   32.0818  -69.4481 H         1 UNK         0.3453 
     85 H85       -69.1129   30.5639  -68.8786 H         1 UNK         0.3453 
     86 H86       -72.3230   30.1531  -72.8749 H         1 UNK         0.2984 
     87 H87       -70.5079   30.0387  -75.8612 H         1 UNK         0.0554 
     88 H88       -70.8700   27.5805  -75.8213 H         1 UNK         0.0847 
     89 H89       -71.0877   27.6158  -74.0712 H         1 UNK         0.0847 
     90 H90       -69.5267   28.0120  -74.7760 H         1 UNK         0.0847 
     91 H91       -72.9796   28.8172  -75.2311 H         1 UNK         0.3141 
     92 H92       -75.0572   30.1205  -74.8765 H         1 UNK         0.0743 
     93 H93       -76.4680   31.8225  -75.9682 H         1 UNK         0.0784 
     94 H94       -75.2170   32.6024  -75.0178 H         1 UNK         0.0784 
     95 H95       -75.0624   32.5287  -76.7677 H         1 UNK         0.0784 
     96 H96       -75.1573   30.2986  -77.7788 H         1 UNK         0.3213 
     97 H97       -75.9220   28.3420  -78.7997 H         1 UNK         0.0855 
     98 H98       -73.0171   27.3084  -78.7744 H         1 UNK         0.0814 
     99 H99       -73.5347   28.8596  -79.4220 H         1 UNK         0.0814 
    100 H100      -74.0605   27.3730  -80.1939 H         1 UNK         0.0814 
    101 H101      -75.1618   26.0308  -77.2029 H         1 UNK         0.3105 
    102 H102      -77.7204   24.1055  -78.7345 H         1 UNK         0.0547 
    103 H103      -75.7778   23.2681  -80.0112 H         1 UNK         0.0837 
    104 H104      -74.7533   23.3632  -78.5890 H         1 UNK         0.0837 
    105 H105      -76.1022   22.2270  -78.6340 H         1 UNK         0.0837 
    106 H106      -77.8254   24.0576  -76.5674 H         1 UNK         0.3020 
    107 H107      -75.5465   23.7054  -73.8763 H         1 UNK         0.1245 
    108 H108      -77.8749   25.5666  -74.5787 H         1 UNK         0.0781 
    109 H109      -76.3787   26.0047  -73.8153 H         1 UNK         0.0781 
    110 H110      -75.7938   25.4990  -71.2921 H         1 UNK         0.0836 
    111 H111      -77.0935   25.5613  -70.1277 H         1 UNK         0.0836 
    112 H112      -78.2809   22.9516  -74.6403 H         1 UNK         0.3022 
    113 H113      -77.5266   19.5554  -75.1541 H         1 UNK         0.0747 
    114 H114      -79.0081   19.0349  -73.2202 H         1 UNK         0.0793 
    115 H115      -77.4079   19.4929  -72.6626 H         1 UNK         0.0793 
    116 H116      -78.7318   20.6436  -72.5486 H         1 UNK         0.0793 
    117 H117      -79.9615   21.0502  -74.6453 H         1 UNK         0.3047 
    118 H118      -80.3837   22.2817  -77.9146 H         1 UNK         0.0822 
    119 H119      -82.5295   21.0355  -77.8919 H         1 UNK         0.0807 
    120 H120      -81.9326   19.9711  -76.6173 H         1 UNK         0.0807 
    121 H121      -81.2014   19.9352  -78.2156 H         1 UNK         0.0807 
    122 H122      -82.1664   22.3032  -75.7191 H         1 UNK         0.2946 
    123 H123      -82.4519   24.5623  -74.7620 H         1 UNK         0.1144 
    124 H124      -81.9561   24.0768  -72.3311 H         1 UNK         0.0793 
    125 H125      -80.4406   23.3089  -72.7973 H         1 UNK         0.0793 
    126 H126      -81.9762   22.6121  -73.2919 H         1 UNK         0.0793 
    127 H127      -80.1657   25.7101  -73.3445 H         1 UNK         0.2896 
@<TRIPOS>BOND
     1    1    2 1    
     2    1   67 1    
     3    1   68 1    
     4    1   69 1    
     5    2    3 2    
     6    2    4 am   BACKBONE|DICT|INTERRES
     7    4    5 1    
     8    4   70 1    
     9    5    6 1    
    10    5   65 1    
    11    5   71 1    
    12    6    7 1    
    13    6   72 1    
    14    6   73 1    
    15    7    8 1    
    16    8    9 1    
    17    8   74 1    
    18    8   75 1    
    19    9   10 ar   
    20    9   14 ar   
    21   10   11 ar   
    22   10   76 1    
    23   11   12 ar   
    24   11   48 1    
    25   12   13 ar   
    26   12   77 1    
    27   13   14 ar   
    28   13   15 1    
    29   14   78 1    
    30   15   16 1    
    31   15   79 1    
    32   15   80 1    
    33   16   17 1    
    34   17   18 1    
    35   17   81 1    
    36   17   82 1    
    37   18   19 1    
    38   18   22 1    
    39   18   83 1    
    40   19   20 am   BACKBONE|DICT|INTERRES
    41   19   21 2    
    42   20   84 1    
    43   20   85 1    
    44   22   23 am   BACKBONE|DICT|INTERRES
    45   22   86 1    
    46   23   24 2    
    47   23   25 1    
    48   25   26 1    
    49   25   27 1    
    50   25   87 1    
    51   26   88 1    
    52   26   89 1    
    53   26   90 1    
    54   27   28 am   BACKBONE|DICT|INTERRES
    55   27   91 1    
    56   28   29 2    
    57   28   30 1    
    58   30   31 1    
    59   30   32 1    
    60   30   92 1    
    61   31   93 1    
    62   31   94 1    
    63   31   95 1    
    64   32   33 am   BACKBONE|DICT|INTERRES
    65   32   96 1    
    66   33   34 2    
    67   33   35 1    
    68   35   36 1    
    69   35   37 1    
    70   35   97 1    
    71   36   98 1    
    72   36   99 1    
    73   36  100 1    
    74   37   38 am   BACKBONE|DICT|INTERRES
    75   37  101 1    
    76   38   39 2    
    77   38   40 1    
    78   40   41 1    
    79   40   42 1    
    80   40  102 1    
    81   41  103 1    
    82   41  104 1    
    83   41  105 1    
    84   42   43 am   BACKBONE|DICT|INTERRES
    85   42  106 1    
    86   43   44 2    
    87   43   45 1    
    88   45   46 1    
    89   45   49 1    
    90   45  107 1    
    91   46   47 1    
    92   46  108 1    
    93   46  109 1    
    94   47   48 1    
    95   48  110 1    
    96   48  111 1    
    97   49   50 am   BACKBONE|DICT|INTERRES
    98   49  112 1    
    99   50   51 2    
   100   50   52 1    
   101   52   53 1    
   102   52   54 1    
   103   52  113 1    
   104   53  114 1    
   105   53  115 1    
   106   53  116 1    
   107   54   55 am   BACKBONE|DICT|INTERRES
   108   54  117 1    
   109   55   56 2    
   110   55   57 1    
   111   57   58 1    
   112   57   59 1    
   113   57  118 1    
   114   58  119 1    
   115   58  120 1    
   116   58  121 1    
   117   59   60 am   BACKBONE|DICT|INTERRES
   118   59  122 1    
   119   60   61 2    
   120   60   62 1    
   121   62   63 1    
   122   62   64 1    
   123   62  123 1    
   124   63  124 1    
   125   63  125 1    
   126   63  126 1    
   127   64   65 am   BACKBONE|DICT|INTERRES
   128   64  127 1    
   129   65   66 2    
@<TRIPOS>SUBSTRUCTURE
     1 UNK         1 GROUP             0       ****    0 ROOT    
