@<TRIPOS>MOLECULE
3R135
127   129    1
SMALL
USER_CHARGES


@<TRIPOS>ATOM
      1 CA        -84.1232   29.6907  -73.9238 C.3       0 UNK        -0.1998 
      2 C         -83.6207   28.3314  -73.4607 C.2       0 UNK         0.4909 
      3 O         -84.4211   27.4988  -73.0333 O.2       0 UNK        -0.5240 
      4 N         -82.3011   28.1094  -73.5389 N.am      1 UNK        -0.4739 
      5 CA        -81.6140   26.8553  -73.2051 C.3       1 UNK         0.0864 
      6 C6        -81.7805   26.4465  -71.7118 C.3       11 UNK        -0.0881 
      7 S7        -80.3326   25.5358  -71.0671 S.3       11 UNK        -0.2682 
      8 C8        -79.6146   26.7249  -69.8867 C.3       11 UNK         0.0289 
      9 C9        -78.6595   27.7119  -70.5479 C.ar      11 UNK        -0.0687 
     10 C10       -79.1499   28.7519  -71.3443 C.ar      11 UNK        -0.0823 
     11 C11       -78.2771   29.6808  -71.9172 C.ar      11 UNK        -0.0830 
     12 C12       -76.9125   29.6011  -71.6348 C.ar      11 UNK        -0.1021 
     13 C13       -76.3993   28.5499  -70.8718 C.ar      11 UNK        -0.0753 
     14 C14       -77.2802   27.6049  -70.3343 C.ar      11 UNK        -0.0933 
     15 C15       -74.8994   28.4383  -70.6237 C.3       11 UNK         0.0166 
     16 S16       -73.9593   28.2143  -72.1709 S.3       11 UNK        -0.2615 
     17 C17       -73.6673   29.9434  -72.7003 C.3       11 UNK        -0.0865 
     18 CA        -72.2523   30.1931  -73.2789 C.3       10 UNK         0.0862 
     19 C         -71.1299   30.0125  -72.2119 C.2       10 UNK         0.5551 
     20 N         -70.2109   29.0639  -72.3567 N.am      10 UNK        -0.7319 
     21 O         -71.0886   30.7614  -71.2387 O.2       10 UNK        -0.5018 
     22 N         -72.0579   29.4435  -74.5256 N.am      10 UNK        -0.4509 
     23 C         -71.1188   29.7029  -75.4431 C.2       10 UNK         0.4899 
     24 O         -70.3821   30.6899  -75.4034 O.2       10 UNK        -0.4839 
     25 CA        -70.9736   28.6830  -76.5921 C.3       9 UNK         0.0222 
     26 CB        -69.5509   28.6663  -77.1891 C.3       9 UNK        -0.1966 
     27 N         -71.3941   27.3192  -76.2389 N.am      9 UNK        -0.4218 
     28 C         -70.9326   26.5530  -75.2350 C.2       9 UNK         0.5020 
     29 O         -70.0589   26.9204  -74.4473 O.2       9 UNK        -0.5274 
     30 CA        -71.5631   25.1601  -75.0460 C.3       8 UNK         0.0270 
     31 CB        -72.0744   24.9747  -73.6065 C.3       8 UNK        -0.1976 
     32 N         -72.6637   24.9127  -75.9832 N.am      8 UNK        -0.4313 
     33 C         -72.5192   24.2990  -77.1654 C.2       8 UNK         0.5041 
     34 O         -71.4557   23.8189  -77.5601 O.2       8 UNK        -0.5577 
     35 CA        -73.7507   24.2261  -78.0834 C.3       7 UNK         0.0284 
     36 CB        -74.5807   22.9675  -77.7853 C.3       7 UNK        -0.1958 
     37 N         -74.6149   25.4103  -78.0433 N.am      7 UNK        -0.4454 
     38 C         -74.2487   26.6421  -78.4271 C.2       7 UNK         0.5089 
     39 O         -73.0950   26.9504  -78.7234 O.2       7 UNK        -0.5125 
     40 CA        -75.3503   27.7095  -78.4947 C.3       6 UNK         0.0408 
     41 CB        -76.2410   27.4893  -79.7282 C.3       6 UNK        -0.1791 
     42 N         -76.1758   27.6916  -77.2902 N.am      6 UNK        -0.4762 
     43 C         -75.9654   28.4618  -76.2129 C.2       6 UNK         0.5007 
     44 O         -75.0884   29.3239  -76.1471 O.2       6 UNK        -0.5032 
     45 CA        -76.8650   28.1902  -74.9856 C.3       5 UNK         0.0783 
     46 C46       -78.1772   29.0211  -75.0407 C.3       11 UNK        -0.0857 
     47 S47       -77.9515   30.7449  -74.4791 S.3       11 UNK        -0.2512 
     48 C48       -78.8007   30.7582  -72.8586 C.3       11 UNK         0.0225 
     49 N         -77.1491   26.7632  -74.7894 N.am      5 UNK        -0.4615 
     50 C         -76.2353   25.7886  -74.6728 C.2       4 UNK         0.5053 
     51 O         -75.0194   25.9628  -74.7348 O.2       4 UNK        -0.5105 
     52 CA        -76.7731   24.3569  -74.5304 C.3       4 UNK         0.0263 
     53 CB        -77.1135   24.0688  -73.0598 C.3       4 UNK        -0.1981 
     54 N         -77.9381   24.0430  -75.3679 N.am      4 UNK        -0.4224 
     55 C         -78.1072   24.2961  -76.6746 C.2       3 UNK         0.4895 
     56 O         -77.2943   24.9122  -77.3646 O.2       3 UNK        -0.5091 
     57 CA        -79.4116   23.8133  -77.3367 C.3       3 UNK         0.0250 
     58 CB        -79.1949   22.4655  -78.0512 C.3       3 UNK        -0.1996 
     59 N         -80.5858   23.7774  -76.4492 N.am      3 UNK        -0.4254 
     60 C         -80.8284   22.9840  -75.3962 C.2       2 UNK         0.5004 
     61 O         -80.0460   22.1239  -74.9896 O.2       2 UNK        -0.5226 
     62 CA        -82.1154   23.2831  -74.6098 C.3       2 UNK         0.0269 
     63 CB        -82.5367   22.1105  -73.7049 C.3       2 UNK        -0.1926 
     64 N         -81.9259   24.4744  -73.7811 N.am      2 UNK        -0.4687 
     65 C         -81.9521   25.7389  -74.2219 C.2       1 UNK         0.5165 
     66 O         -82.1873   26.0336  -75.3973 O.2       1 UNK        -0.5079 
     67 H67       -83.3105   30.3353  -74.2580 H         1 UNK         0.0900 
     68 H68       -84.6428   30.1956  -73.1099 H         1 UNK         0.0900 
     69 H69       -84.8219   29.5696  -74.7511 H         1 UNK         0.0900 
     70 H70       -81.7167   28.8238  -73.9488 H         1 UNK         0.2959 
     71 H71       -80.5580   27.0688  -73.3726 H         1 UNK         0.1079 
     72 H72       -81.9336   27.3337  -71.0968 H         1 UNK         0.0837 
     73 H73       -82.6823   25.8506  -71.5576 H         1 UNK         0.0837 
     74 H74       -80.4047   27.2649  -69.3633 H         1 UNK         0.0685 
     75 H75       -79.0883   26.1572  -69.1178 H         1 UNK         0.0685 
     76 H76       -80.2117   28.8378  -71.5210 H         1 UNK         0.1434 
     77 H77       -76.2483   30.3423  -72.0515 H         1 UNK         0.1329 
     78 H78       -76.8934   26.7951  -69.7308 H         1 UNK         0.1335 
     79 H79       -74.6877   27.5846  -69.9783 H         1 UNK         0.0680 
     80 H80       -74.5456   29.3176  -70.0843 H         1 UNK         0.0680 
     81 H81       -74.4122   30.1996  -73.4554 H         1 UNK         0.1032 
     82 H82       -73.8459   30.6247  -71.8668 H         1 UNK         0.1032 
     83 H83       -72.2162   31.2497  -73.5514 H         1 UNK         0.0461 
     84 H84       -70.2369   28.4271  -73.1466 H         1 UNK         0.3453 
     85 H85       -69.4908   28.9659  -71.6596 H         1 UNK         0.3453 
     86 H86       -72.6243   28.6145  -74.6309 H         1 UNK         0.2984 
     87 H87       -71.6573   29.0151  -77.3746 H         1 UNK         0.0554 
     88 H88       -69.4757   27.9577  -78.0139 H         1 UNK         0.0847 
     89 H89       -68.8037   28.3939  -76.4428 H         1 UNK         0.0847 
     90 H90       -69.2767   29.6462  -77.5817 H         1 UNK         0.0847 
     91 H91       -72.0955   26.9217  -76.8538 H         1 UNK         0.3141 
     92 H92       -70.7687   24.4287  -75.2077 H         1 UNK         0.0743 
     93 H93       -72.5324   23.9951  -73.4697 H         1 UNK         0.0784 
     94 H94       -71.2583   25.0539  -72.8871 H         1 UNK         0.0784 
     95 H95       -72.8130   25.7296  -73.3395 H         1 UNK         0.0784 
     96 H96       -73.5744   25.2826  -75.7116 H         1 UNK         0.3213 
     97 H97       -73.3786   24.1418  -79.1068 H         1 UNK         0.0855 
     98 H98       -73.9688   22.0682  -77.8683 H         1 UNK         0.0814 
     99 H99       -75.4085   22.8615  -78.4868 H         1 UNK         0.0814 
    100 H100      -74.9957   22.9860  -76.7790 H         1 UNK         0.0814 
    101 H101      -75.5917   25.2486  -77.8016 H         1 UNK         0.3105 
    102 H102      -74.8695   28.6843  -78.6024 H         1 UNK         0.0547 
    103 H103      -75.6475   27.4943  -80.6434 H         1 UNK         0.0837 
    104 H104      -76.7688   26.5355  -79.6866 H         1 UNK         0.0837 
    105 H105      -76.9865   28.2789  -79.8224 H         1 UNK         0.0837 
    106 H106      -76.8639   26.9497  -77.2269 H         1 UNK         0.3020 
    107 H107      -76.2918   28.4952  -74.1087 H         1 UNK         0.1245 
    108 H108      -78.9414   28.5641  -74.4123 H         1 UNK         0.0781 
    109 H109      -78.6015   29.0288  -76.0468 H         1 UNK         0.0781 
    110 H110      -79.8732   30.6451  -73.0233 H         1 UNK         0.0836 
    111 H111      -78.6620   31.7351  -72.3935 H         1 UNK         0.0836 
    112 H112      -78.1206   26.4985  -74.7517 H         1 UNK         0.3022 
    113 H113      -75.9729   23.6781  -74.8263 H         1 UNK         0.0747 
    114 H114      -77.3993   23.0270  -72.9132 H         1 UNK         0.0793 
    115 H115      -76.2555   24.2632  -72.4143 H         1 UNK         0.0793 
    116 H116      -77.9335   24.6945  -72.7063 H         1 UNK         0.0793 
    117 H117      -78.6502   23.4583  -74.9401 H         1 UNK         0.3047 
    118 H118      -79.6509   24.5523  -78.1031 H         1 UNK         0.0822 
    119 H119      -78.9193   21.6720  -77.3559 H         1 UNK         0.0807 
    120 H120      -78.3923   22.5413  -78.7864 H         1 UNK         0.0807 
    121 H121      -80.0922   22.1496  -78.5832 H         1 UNK         0.0807 
    122 H122      -81.2578   24.5210  -76.6076 H         1 UNK         0.2946 
    123 H123      -82.9196   23.4617  -75.3278 H         1 UNK         0.1144 
    124 H124      -82.6722   21.1982  -74.2874 H         1 UNK         0.0793 
    125 H125      -81.7908   21.8996  -72.9372 H         1 UNK         0.0793 
    126 H126      -83.4824   22.3177  -73.2038 H         1 UNK         0.0793 
    127 H127      -81.6697   24.3160  -72.8153 H         1 UNK         0.2896 
@<TRIPOS>BOND
     1    1    2 1    
     2    1   67 1    
     3    1   68 1    
     4    1   69 1    
     5    2    3 2    
     6    2    4 am   BACKBONE|DICT|INTERRES
     7    4    5 1    
     8    4   70 1    
     9    5    6 1    
    10    5   65 1    
    11    5   71 1    
    12    6    7 1    
    13    6   72 1    
    14    6   73 1    
    15    7    8 1    
    16    8    9 1    
    17    8   74 1    
    18    8   75 1    
    19    9   10 ar   
    20    9   14 ar   
    21   10   11 ar   
    22   10   76 1    
    23   11   12 ar   
    24   11   48 1    
    25   12   13 ar   
    26   12   77 1    
    27   13   14 ar   
    28   13   15 1    
    29   14   78 1    
    30   15   16 1    
    31   15   79 1    
    32   15   80 1    
    33   16   17 1    
    34   17   18 1    
    35   17   81 1    
    36   17   82 1    
    37   18   19 1    
    38   18   22 1    
    39   18   83 1    
    40   19   20 am   BACKBONE|DICT|INTERRES
    41   19   21 2    
    42   20   84 1    
    43   20   85 1    
    44   22   23 am   BACKBONE|DICT|INTERRES
    45   22   86 1    
    46   23   24 2    
    47   23   25 1    
    48   25   26 1    
    49   25   27 1    
    50   25   87 1    
    51   26   88 1    
    52   26   89 1    
    53   26   90 1    
    54   27   28 am   BACKBONE|DICT|INTERRES
    55   27   91 1    
    56   28   29 2    
    57   28   30 1    
    58   30   31 1    
    59   30   32 1    
    60   30   92 1    
    61   31   93 1    
    62   31   94 1    
    63   31   95 1    
    64   32   33 am   BACKBONE|DICT|INTERRES
    65   32   96 1    
    66   33   34 2    
    67   33   35 1    
    68   35   36 1    
    69   35   37 1    
    70   35   97 1    
    71   36   98 1    
    72   36   99 1    
    73   36  100 1    
    74   37   38 am   BACKBONE|DICT|INTERRES
    75   37  101 1    
    76   38   39 2    
    77   38   40 1    
    78   40   41 1    
    79   40   42 1    
    80   40  102 1    
    81   41  103 1    
    82   41  104 1    
    83   41  105 1    
    84   42   43 am   BACKBONE|DICT|INTERRES
    85   42  106 1    
    86   43   44 2    
    87   43   45 1    
    88   45   46 1    
    89   45   49 1    
    90   45  107 1    
    91   46   47 1    
    92   46  108 1    
    93   46  109 1    
    94   47   48 1    
    95   48  110 1    
    96   48  111 1    
    97   49   50 am   BACKBONE|DICT|INTERRES
    98   49  112 1    
    99   50   51 2    
   100   50   52 1    
   101   52   53 1    
   102   52   54 1    
   103   52  113 1    
   104   53  114 1    
   105   53  115 1    
   106   53  116 1    
   107   54   55 am   BACKBONE|DICT|INTERRES
   108   54  117 1    
   109   55   56 2    
   110   55   57 1    
   111   57   58 1    
   112   57   59 1    
   113   57  118 1    
   114   58  119 1    
   115   58  120 1    
   116   58  121 1    
   117   59   60 am   BACKBONE|DICT|INTERRES
   118   59  122 1    
   119   60   61 2    
   120   60   62 1    
   121   62   63 1    
   122   62   64 1    
   123   62  123 1    
   124   63  124 1    
   125   63  125 1    
   126   63  126 1    
   127   64   65 am   BACKBONE|DICT|INTERRES
   128   64  127 1    
   129   65   66 2    
@<TRIPOS>SUBSTRUCTURE
     1 UNK         1 GROUP             0       ****    0 ROOT    
