@<TRIPOS>MOLECULE
3R135
127   129    1
SMALL
USER_CHARGES


@<TRIPOS>ATOM
      1 CA        -76.6122   28.6383  -69.4399 C.3       0 UNK        -0.1998 
      2 C         -77.8855   27.8072  -69.4124 C.2       0 UNK         0.4909 
      3 O         -78.4012   27.5068  -68.3354 O.2       0 UNK        -0.5240 
      4 N         -78.3918   27.4352  -70.5920 N.am      1 UNK        -0.4739 
      5 CA        -79.5398   26.5440  -70.7742 C.3       1 UNK         0.0864 
      6 C6        -80.2881   26.8514  -72.0982 C.3       11 UNK        -0.0881 
      7 S7        -81.6125   28.0838  -71.8735 S.3       11 UNK        -0.2682 
      8 C8        -80.6965   29.6500  -71.6881 C.3       11 UNK         0.0289 
      9 C9        -79.9339   30.0712  -72.9386 C.ar      11 UNK        -0.0687 
     10 C10       -80.5871   30.1614  -74.1706 C.ar      11 UNK        -0.0823 
     11 C11       -79.9127   30.6251  -75.3026 C.ar      11 UNK        -0.0830 
     12 C12       -78.5672   30.9935  -75.2002 C.ar      11 UNK        -0.1021 
     13 C13       -77.9017   30.9239  -73.9708 C.ar      11 UNK        -0.0753 
     14 C14       -78.5923   30.4547  -72.8462 C.ar      11 UNK        -0.0933 
     15 C15       -76.4830   31.4760  -73.8488 C.3       11 UNK         0.0166 
     16 S16       -75.3788   30.4951  -72.7787 S.3       11 UNK        -0.2615 
     17 C17       -74.6414   29.3209  -73.9608 C.3       11 UNK        -0.0865 
     18 CA        -74.5793   27.8779  -73.3950 C.3       10 UNK         0.0862 
     19 C         -75.8840   27.0945  -73.6891 C.2       10 UNK         0.5551 
     20 N         -76.0092   26.5165  -74.8745 N.am      10 UNK        -0.7319 
     21 O         -76.7626   26.9945  -72.8383 O.2       10 UNK        -0.5018 
     22 N         -73.3923   27.1700  -73.8912 N.am      10 UNK        -0.4509 
     23 C         -72.8182   26.1292  -73.2740 C.2       10 UNK         0.4899 
     24 O         -73.1516   25.7179  -72.1630 O.2       10 UNK        -0.4839 
     25 CA        -71.6701   25.4235  -74.0163 C.3       9 UNK         0.0222 
     26 CB        -72.2221   24.2729  -74.8726 C.3       9 UNK        -0.1966 
     27 N         -70.8940   26.3266  -74.8677 N.am      9 UNK        -0.4218 
     28 C         -70.0938   27.3112  -74.4410 C.2       9 UNK         0.5020 
     29 O         -69.8526   27.5286  -73.2530 O.2       9 UNK        -0.5274 
     30 CA        -69.4710   28.2298  -75.5112 C.3       8 UNK         0.0270 
     31 CB        -68.1702   27.6253  -76.0762 C.3       8 UNK        -0.1976 
     32 N         -70.3972   28.6334  -76.5837 N.am      8 UNK        -0.4313 
     33 C         -70.9787   27.8694  -77.5187 C.2       8 UNK         0.5041 
     34 O         -70.7741   26.6592  -77.6481 O.2       8 UNK        -0.5577 
     35 CA        -71.9741   28.5761  -78.4530 C.3       7 UNK         0.0284 
     36 CB        -71.2600   29.0731  -79.7203 C.3       7 UNK        -0.1958 
     37 N         -73.0824   27.6983  -78.8372 N.am      7 UNK        -0.4454 
     38 C         -73.9843   27.1863  -77.9905 C.2       7 UNK         0.5089 
     39 O         -74.0039   27.4088  -76.7761 O.2       7 UNK        -0.5125 
     40 CA        -75.0305   26.2401  -78.6002 C.3       6 UNK         0.0408 
     41 CB        -74.6926   24.7787  -78.2670 C.3       6 UNK        -0.1791 
     42 N         -76.3747   26.5380  -78.1091 N.am      6 UNK        -0.4762 
     43 C         -77.0799   27.6445  -78.3746 C.2       6 UNK         0.5007 
     44 O         -76.6775   28.5231  -79.1403 O.2       6 UNK        -0.5032 
     45 CA        -78.4714   27.7785  -77.7007 C.3       5 UNK         0.0783 
     46 C46       -79.2620   28.9873  -78.2673 C.3       11 UNK        -0.0857 
     47 S47       -80.8937   29.2143  -77.4835 S.3       11 UNK        -0.2512 
     48 C48       -80.6703   30.7942  -76.6113 C.3       11 UNK         0.0225 
     49 N         -79.2632   26.5397  -77.7777 N.am      5 UNK        -0.4615 
     50 C         -79.0675   25.4309  -77.0566 C.2       4 UNK         0.5053 
     51 O         -78.1359   25.3024  -76.2579 O.2       4 UNK        -0.5105 
     52 CA        -80.0393   24.2614  -77.3087 C.3       4 UNK         0.0263 
     53 CB        -79.8850   23.7199  -78.7412 C.3       4 UNK        -0.1981 
     54 N         -79.7898   23.1668  -76.3695 N.am      4 UNK        -0.4224 
     55 C         -80.1030   23.1914  -75.0683 C.2       3 UNK         0.4895 
     56 O         -80.8383   24.0368  -74.5551 O.2       3 UNK        -0.5091 
     57 CA        -79.4336   22.1428  -74.1695 C.3       3 UNK         0.0250 
     58 CB        -78.5921   21.0892  -74.9307 C.3       3 UNK        -0.1996 
     59 N         -78.6066   22.8913  -73.2287 N.am      3 UNK        -0.4254 
     60 C         -78.0398   22.4270  -72.1109 C.2       2 UNK         0.5004 
     61 O         -78.1117   21.2580  -71.7300 O.2       2 UNK        -0.5226 
     62 CA        -77.2703   23.4546  -71.2632 C.3       2 UNK         0.0269 
     63 CB        -75.8165   23.5736  -71.7479 C.3       2 UNK        -0.1926 
     64 N         -77.8868   24.7855  -71.2595 N.am      2 UNK        -0.4687 
     65 C         -79.0796   25.0748  -70.7156 C.2       1 UNK         0.5165 
     66 O         -79.7954   24.2406  -70.1596 O.2       1 UNK        -0.5079 
     67 H67       -75.8525   28.1847  -68.8041 H         1 UNK         0.0900 
     68 H68       -76.8111   29.6446  -69.0726 H         1 UNK         0.0900 
     69 H69       -76.2038   28.7175  -70.4470 H         1 UNK         0.0900 
     70 H70       -77.8725   27.6392  -71.4422 H         1 UNK         0.2959 
     71 H71       -80.2321   26.6783  -69.9396 H         1 UNK         0.1079 
     72 H72       -80.7787   25.9584  -72.4918 H         1 UNK         0.0837 
     73 H73       -79.6033   27.1764  -72.8843 H         1 UNK         0.0837 
     74 H74       -81.4131   30.4361  -71.4473 H         1 UNK         0.0685 
     75 H75       -80.0329   29.5794  -70.8264 H         1 UNK         0.0685 
     76 H76       -81.6322   29.8923  -74.2431 H         1 UNK         0.1434 
     77 H77       -78.0518   31.3810  -76.0685 H         1 UNK         0.1329 
     78 H78       -78.0953   30.4272  -71.8865 H         1 UNK         0.1335 
     79 H79       -76.0226   31.5952  -74.8309 H         1 UNK         0.0680 
     80 H80       -76.5540   32.4793  -73.4269 H         1 UNK         0.0680 
     81 H81       -73.6350   29.6887  -74.1675 H         1 UNK         0.1032 
     82 H82       -75.1633   29.3527  -74.9200 H         1 UNK         0.1032 
     83 H83       -74.4796   27.9425  -72.3094 H         1 UNK         0.0461 
     84 H84       -75.2869   26.6633  -75.5713 H         1 UNK         0.3453 
     85 H85       -76.8515   26.0040  -75.1142 H         1 UNK         0.3453 
     86 H86       -73.1249   27.3757  -74.8459 H         1 UNK         0.2984 
     87 H87       -70.9966   25.0030  -73.2668 H         1 UNK         0.0554 
     88 H88       -71.4181   23.7019  -75.3372 H         1 UNK         0.0847 
     89 H89       -72.8736   24.6410  -75.6655 H         1 UNK         0.0847 
     90 H90       -72.8053   23.5781  -74.2664 H         1 UNK         0.0847 
     91 H91       -70.9968   26.2290  -75.8772 H         1 UNK         0.3141 
     92 H92       -69.1998   29.1553  -75.0004 H         1 UNK         0.0743 
     93 H93       -67.4530   27.4336  -75.2769 H         1 UNK         0.0784 
     94 H94       -67.6929   28.3032  -76.7839 H         1 UNK         0.0784 
     95 H95       -68.3446   26.6773  -76.5858 H         1 UNK         0.0784 
     96 H96       -70.6531   29.6117  -76.5639 H         1 UNK         0.3213 
     97 H97       -72.4004   29.4345  -77.9292 H         1 UNK         0.0855 
     98 H98       -70.4460   29.7549  -79.4698 H         1 UNK         0.0814 
     99 H99       -71.9425   29.6144  -80.3759 H         1 UNK         0.0814 
    100 H100      -70.8289   28.2483  -80.2896 H         1 UNK         0.0814 
    101 H101      -73.1255   27.4281  -79.8088 H         1 UNK         0.3105 
    102 H102      -75.0308   26.3580  -79.6858 H         1 UNK         0.0547 
    103 H103      -74.7575   24.5842  -77.1959 H         1 UNK         0.0837 
    104 H104      -73.6796   24.5272  -78.5847 H         1 UNK         0.0837 
    105 H105      -75.3711   24.0908  -78.7717 H         1 UNK         0.0837 
    106 H106      -76.7803   25.8840  -77.4461 H         1 UNK         0.3020 
    107 H107      -78.2752   27.9824  -76.6446 H         1 UNK         0.1245 
    108 H108      -79.4255   28.8646  -79.3397 H         1 UNK         0.0781 
    109 H109      -78.6827   29.9057  -78.1568 H         1 UNK         0.0781 
    110 H110      -81.6550   31.2150  -76.4017 H         1 UNK         0.0836 
    111 H111      -80.1737   31.5152  -77.2625 H         1 UNK         0.0836 
    112 H112      -80.0377   26.5642  -78.4245 H         1 UNK         0.3022 
    113 H113      -81.0598   24.6243  -77.1691 H         1 UNK         0.0747 
    114 H114      -80.5485   22.8729  -78.9175 H         1 UNK         0.0793 
    115 H115      -80.1346   24.4789  -79.4835 H         1 UNK         0.0793 
    116 H116      -78.8638   23.3923  -78.9415 H         1 UNK         0.0793 
    117 H117      -79.1453   22.4549  -76.6798 H         1 UNK         0.3047 
    118 H118      -80.2253   21.6347  -73.6155 H         1 UNK         0.0822 
    119 H119      -78.2028   20.3294  -74.2533 H         1 UNK         0.0807 
    120 H120      -77.7380   21.5377  -75.4401 H         1 UNK         0.0807 
    121 H121      -79.1929   20.5616  -75.6728 H         1 UNK         0.0807 
    122 H122      -78.5211   23.8791  -73.4308 H         1 UNK         0.2946 
    123 H123      -77.2613   23.0864  -70.2347 H         1 UNK         0.1144 
    124 H124      -75.3235   22.6006  -71.7531 H         1 UNK         0.0793 
    125 H125      -75.2356   24.2265  -71.0964 H         1 UNK         0.0793 
    126 H126      -75.7576   23.9757  -72.7604 H         1 UNK         0.0793 
    127 H127      -77.3753   25.5344  -71.7183 H         1 UNK         0.2896 
@<TRIPOS>BOND
     1    1    2 1    
     2    1   67 1    
     3    1   68 1    
     4    1   69 1    
     5    2    3 2    
     6    2    4 am   BACKBONE|DICT|INTERRES
     7    4    5 1    
     8    4   70 1    
     9    5    6 1    
    10    5   65 1    
    11    5   71 1    
    12    6    7 1    
    13    6   72 1    
    14    6   73 1    
    15    7    8 1    
    16    8    9 1    
    17    8   74 1    
    18    8   75 1    
    19    9   10 ar   
    20    9   14 ar   
    21   10   11 ar   
    22   10   76 1    
    23   11   12 ar   
    24   11   48 1    
    25   12   13 ar   
    26   12   77 1    
    27   13   14 ar   
    28   13   15 1    
    29   14   78 1    
    30   15   16 1    
    31   15   79 1    
    32   15   80 1    
    33   16   17 1    
    34   17   18 1    
    35   17   81 1    
    36   17   82 1    
    37   18   19 1    
    38   18   22 1    
    39   18   83 1    
    40   19   20 am   BACKBONE|DICT|INTERRES
    41   19   21 2    
    42   20   84 1    
    43   20   85 1    
    44   22   23 am   BACKBONE|DICT|INTERRES
    45   22   86 1    
    46   23   24 2    
    47   23   25 1    
    48   25   26 1    
    49   25   27 1    
    50   25   87 1    
    51   26   88 1    
    52   26   89 1    
    53   26   90 1    
    54   27   28 am   BACKBONE|DICT|INTERRES
    55   27   91 1    
    56   28   29 2    
    57   28   30 1    
    58   30   31 1    
    59   30   32 1    
    60   30   92 1    
    61   31   93 1    
    62   31   94 1    
    63   31   95 1    
    64   32   33 am   BACKBONE|DICT|INTERRES
    65   32   96 1    
    66   33   34 2    
    67   33   35 1    
    68   35   36 1    
    69   35   37 1    
    70   35   97 1    
    71   36   98 1    
    72   36   99 1    
    73   36  100 1    
    74   37   38 am   BACKBONE|DICT|INTERRES
    75   37  101 1    
    76   38   39 2    
    77   38   40 1    
    78   40   41 1    
    79   40   42 1    
    80   40  102 1    
    81   41  103 1    
    82   41  104 1    
    83   41  105 1    
    84   42   43 am   BACKBONE|DICT|INTERRES
    85   42  106 1    
    86   43   44 2    
    87   43   45 1    
    88   45   46 1    
    89   45   49 1    
    90   45  107 1    
    91   46   47 1    
    92   46  108 1    
    93   46  109 1    
    94   47   48 1    
    95   48  110 1    
    96   48  111 1    
    97   49   50 am   BACKBONE|DICT|INTERRES
    98   49  112 1    
    99   50   51 2    
   100   50   52 1    
   101   52   53 1    
   102   52   54 1    
   103   52  113 1    
   104   53  114 1    
   105   53  115 1    
   106   53  116 1    
   107   54   55 am   BACKBONE|DICT|INTERRES
   108   54  117 1    
   109   55   56 2    
   110   55   57 1    
   111   57   58 1    
   112   57   59 1    
   113   57  118 1    
   114   58  119 1    
   115   58  120 1    
   116   58  121 1    
   117   59   60 am   BACKBONE|DICT|INTERRES
   118   59  122 1    
   119   60   61 2    
   120   60   62 1    
   121   62   63 1    
   122   62   64 1    
   123   62  123 1    
   124   63  124 1    
   125   63  125 1    
   126   63  126 1    
   127   64   65 am   BACKBONE|DICT|INTERRES
   128   64  127 1    
   129   65   66 2    
@<TRIPOS>SUBSTRUCTURE
     1 UNK         1 GROUP             0       ****    0 ROOT    
