@<TRIPOS>MOLECULE
3R135
127   129    1
SMALL
USER_CHARGES


@<TRIPOS>ATOM
      1 CA        -81.5145   28.0526  -71.2227 C.3       0 UNK        -0.1998 
      2 C         -81.1017   27.7776  -72.6602 C.2       0 UNK         0.4909 
      3 O         -80.2840   26.8904  -72.8960 O.2       0 UNK        -0.5240 
      4 N         -81.6642   28.5298  -73.6154 N.am      1 UNK        -0.4739 
      5 CA        -81.4045   28.5082  -75.0647 C.3       1 UNK         0.0864 
      6 C6        -79.9413   28.8406  -75.4579 C.3       11 UNK        -0.0881 
      7 S7        -79.4169   30.4996  -74.9056 S.3       11 UNK        -0.2682 
      8 C8        -77.6232   30.2705  -74.6843 C.3       11 UNK         0.0289 
      9 C9        -77.2531   29.9886  -73.2355 C.ar      11 UNK        -0.0687 
     10 C10       -77.4976   28.7338  -72.6702 C.ar      11 UNK        -0.0823 
     11 C11       -77.1488   28.4680  -71.3440 C.ar      11 UNK        -0.0830 
     12 C12       -76.5315   29.4662  -70.5849 C.ar      11 UNK        -0.1021 
     13 C13       -76.2734   30.7235  -71.1393 C.ar      11 UNK        -0.0753 
     14 C14       -76.6439   30.9812  -72.4622 C.ar      11 UNK        -0.0933 
     15 C15       -75.6140   31.8105  -70.3021 C.3       11 UNK         0.0166 
     16 S16       -73.9172   32.1823  -70.8505 S.3       11 UNK        -0.2615 
     17 C17       -73.0407   30.6204  -70.4918 C.3       11 UNK        -0.0865 
     18 CA        -72.1630   30.1368  -71.6765 C.3       10 UNK         0.0862 
     19 C         -71.3142   28.9096  -71.2595 C.2       10 UNK         0.5551 
     20 N         -70.1385   29.1344  -70.6897 N.am      10 UNK        -0.7319 
     21 O         -71.7237   27.7603  -71.4147 O.2       10 UNK        -0.5018 
     22 N         -72.9565   29.8007  -72.8651 N.am      10 UNK        -0.4509 
     23 C         -72.9851   30.4969  -74.0064 C.2       10 UNK         0.4899 
     24 O         -72.4399   31.5911  -74.1642 O.2       10 UNK        -0.4839 
     25 CA        -73.7276   29.8268  -75.1794 C.3       9 UNK         0.0222 
     26 CB        -73.6157   30.6118  -76.5023 C.3       9 UNK        -0.1966 
     27 N         -73.3329   28.4271  -75.3791 N.am      9 UNK        -0.4218 
     28 C         -72.0970   27.9439  -75.5874 C.2       9 UNK         0.5020 
     29 O         -71.0799   28.6358  -75.6544 O.2       9 UNK        -0.5274 
     30 CA        -71.9730   26.4194  -75.7526 C.3       8 UNK         0.0270 
     31 CB        -72.0740   25.7151  -74.3897 C.3       8 UNK        -0.1976 
     32 N         -72.9662   25.8608  -76.6729 N.am      8 UNK        -0.4313 
     33 C         -73.0012   26.0932  -77.9933 C.2       8 UNK         0.5041 
     34 O         -72.1691   26.7735  -78.5948 O.2       8 UNK        -0.5577 
     35 CA        -74.1649   25.4652  -78.7787 C.3       7 UNK         0.0284 
     36 CB        -73.8795   23.9918  -79.1143 C.3       7 UNK        -0.1958 
     37 N         -75.4345   25.5784  -78.0588 N.am      7 UNK        -0.4454 
     38 C         -76.1255   26.7202  -77.9348 C.2       7 UNK         0.5089 
     39 O         -75.8090   27.7784  -78.4782 O.2       7 UNK        -0.5125 
     40 CA        -77.3790   26.6810  -77.0453 C.3       6 UNK         0.0408 
     41 CB        -78.6056   26.2764  -77.8761 C.3       6 UNK        -0.1791 
     42 N         -77.2399   25.7965  -75.8828 N.am      6 UNK        -0.4762 
     43 C         -76.3611   25.9879  -74.8850 C.2       6 UNK         0.5007 
     44 O         -75.6301   26.9732  -74.8063 O.2       6 UNK        -0.5032 
     45 CA        -76.2055   24.8544  -73.8511 C.3       5 UNK         0.0783 
     46 C46       -77.1338   25.0300  -72.6228 C.3       11 UNK        -0.0857 
     47 S47       -76.2749   25.8342  -71.2260 S.3       11 UNK        -0.2512 
     48 C48       -77.4615   27.1165  -70.7180 C.3       11 UNK         0.0225 
     49 N         -76.3502   23.5354  -74.4716 N.am      5 UNK        -0.4615 
     50 C         -75.4769   23.0226  -75.3498 C.2       4 UNK         0.5053 
     51 O         -74.4509   23.6056  -75.6981 O.2       4 UNK        -0.5105 
     52 CA        -75.8058   21.6536  -75.9696 C.3       4 UNK         0.0263 
     53 CB        -75.0265   20.5409  -75.2518 C.3       4 UNK        -0.1981 
     54 N         -77.2361   21.3357  -75.9509 N.am      4 UNK        -0.4224 
     55 C         -78.1716   21.9841  -76.6586 C.2       3 UNK         0.4895 
     56 O         -77.9103   22.8872  -77.4555 O.2       3 UNK        -0.5091 
     57 CA        -79.6393   21.5595  -76.4388 C.3       3 UNK         0.0250 
     58 CB        -79.8640   20.7269  -75.1546 C.3       3 UNK        -0.1996 
     59 N         -80.5786   22.6887  -76.4655 N.am      3 UNK        -0.4254 
     60 C         -80.5460   23.7937  -75.7052 C.2       2 UNK         0.5004 
     61 O         -79.6485   24.0612  -74.9006 O.2       2 UNK        -0.5226 
     62 CA        -81.7480   24.7366  -75.8606 C.3       2 UNK         0.0269 
     63 CB        -82.9901   24.1652  -75.1525 C.3       2 UNK        -0.1926 
     64 N         -81.4415   26.0500  -75.2994 N.am      2 UNK        -0.4687 
     65 C         -81.8874   27.2203  -75.7677 C.2       1 UNK         0.5165 
     66 O         -82.6531   27.3146  -76.7283 O.2       1 UNK        -0.5079 
     67 H67       -80.6542   28.3957  -70.6486 H         1 UNK         0.0900 
     68 H68       -82.2915   28.8141  -71.1589 H         1 UNK         0.0900 
     69 H69       -81.8926   27.1413  -70.7604 H         1 UNK         0.0900 
     70 H70       -82.3451   29.2209  -73.3327 H         1 UNK         0.2959 
     71 H71       -82.0270   29.3080  -75.4702 H         1 UNK         0.1079 
     72 H72       -79.2635   28.0838  -75.0644 H         1 UNK         0.0837 
     73 H73       -79.8252   28.8151  -76.5431 H         1 UNK         0.0837 
     74 H74       -77.1196   31.1744  -75.0302 H         1 UNK         0.0685 
     75 H75       -77.2561   29.4667  -75.3211 H         1 UNK         0.0685 
     76 H76       -77.9629   27.9602  -73.2608 H         1 UNK         0.1434 
     77 H77       -76.2570   29.2661  -69.5582 H         1 UNK         0.1329 
     78 H78       -76.4460   31.9547  -72.8896 H         1 UNK         0.1335 
     79 H79       -76.2109   32.7213  -70.3675 H         1 UNK         0.0680 
     80 H80       -75.5955   31.5338  -69.2468 H         1 UNK         0.0680 
     81 H81       -73.7524   29.8435  -70.2099 H         1 UNK         0.1032 
     82 H82       -72.4237   30.7928  -69.6078 H         1 UNK         0.1032 
     83 H83       -71.4620   30.9359  -71.9267 H         1 UNK         0.0461 
     84 H84       -69.7957   30.0723  -70.5499 H         1 UNK         0.3453 
     85 H85       -69.5779   28.3485  -70.3993 H         1 UNK         0.3453 
     86 H86       -73.3905   28.8883  -72.8396 H         1 UNK         0.2984 
     87 H87       -74.7800   29.8045  -74.8983 H         1 UNK         0.0554 
     88 H88       -74.0016   31.6256  -76.3896 H         1 UNK         0.0847 
     89 H89       -74.1902   30.1319  -77.2951 H         1 UNK         0.0847 
     90 H90       -72.5813   30.6908  -76.8385 H         1 UNK         0.0847 
     91 H91       -74.1007   27.7606  -75.2933 H         1 UNK         0.3141 
     92 H92       -70.9849   26.2088  -76.1672 H         1 UNK         0.0743 
     93 H93       -71.2978   26.0708  -73.7107 H         1 UNK         0.0784 
     94 H94       -73.0337   25.9006  -73.9073 H         1 UNK         0.0784 
     95 H95       -71.9505   24.6364  -74.4882 H         1 UNK         0.0784 
     96 H96       -73.6428   25.2106  -76.2798 H         1 UNK         0.3213 
     97 H97       -74.2592   26.0088  -79.7216 H         1 UNK         0.0855 
     98 H98       -73.7446   23.3844  -78.2196 H         1 UNK         0.0814 
     99 H99       -72.9677   23.9007  -79.7059 H         1 UNK         0.0814 
    100 H100      -74.6890   23.5537  -79.6983 H         1 UNK         0.0814 
    101 H101      -75.7718   24.7572  -77.5764 H         1 UNK         0.3105 
    102 H102      -77.5415   27.6925  -76.6765 H         1 UNK         0.0547 
    103 H103      -78.4960   25.2814  -78.3069 H         1 UNK         0.0837 
    104 H104      -78.7603   26.9708  -78.7029 H         1 UNK         0.0837 
    105 H105      -79.5129   26.2832  -77.2776 H         1 UNK         0.0837 
    106 H106      -77.8205   24.9651  -75.8607 H         1 UNK         0.3020 
    107 H107      -75.1709   24.9014  -73.5041 H         1 UNK         0.1245 
    108 H108      -77.4678   24.0591  -72.2536 H         1 UNK         0.0781 
    109 H109      -78.0494   25.5621  -72.8833 H         1 UNK         0.0781 
    110 H110      -77.4313   27.1950  -69.6302 H         1 UNK         0.0836 
    111 H111      -78.4798   26.8121  -70.9600 H         1 UNK         0.0836 
    112 H112      -77.1978   23.0265  -74.2657 H         1 UNK         0.3022 
    113 H113      -75.4804   21.6822  -77.0117 H         1 UNK         0.0747 
    114 H114      -75.1841   19.5736  -75.7293 H         1 UNK         0.0793 
    115 H115      -73.9538   20.7397  -75.2746 H         1 UNK         0.0793 
    116 H116      -75.3188   20.4520  -74.2047 H         1 UNK         0.0793 
    117 H117      -77.5310   20.6005  -75.3245 H         1 UNK         0.3047 
    118 H118      -79.8965   20.9296  -77.2916 H         1 UNK         0.0822 
    119 H119      -80.9169   20.4703  -75.0357 H         1 UNK         0.0807 
    120 H120      -79.5577   21.2688  -74.2585 H         1 UNK         0.0807 
    121 H121      -79.3166   19.7840  -75.1831 H         1 UNK         0.0807 
    122 H122      -81.3414   22.5902  -77.1208 H         1 UNK         0.2946 
    123 H123      -81.9530   24.8377  -76.9291 H         1 UNK         0.1144 
    124 H124      -83.8556   24.8146  -75.2855 H         1 UNK         0.0793 
    125 H125      -82.8208   24.0495  -74.0811 H         1 UNK         0.0793 
    126 H126      -83.2592   23.1855  -75.5490 H         1 UNK         0.0793 
    127 H127      -80.8067   26.0561  -74.5014 H         1 UNK         0.2896 
@<TRIPOS>BOND
     1    1    2 1    
     2    1   67 1    
     3    1   68 1    
     4    1   69 1    
     5    2    3 2    
     6    2    4 am   BACKBONE|DICT|INTERRES
     7    4    5 1    
     8    4   70 1    
     9    5    6 1    
    10    5   65 1    
    11    5   71 1    
    12    6    7 1    
    13    6   72 1    
    14    6   73 1    
    15    7    8 1    
    16    8    9 1    
    17    8   74 1    
    18    8   75 1    
    19    9   10 ar   
    20    9   14 ar   
    21   10   11 ar   
    22   10   76 1    
    23   11   12 ar   
    24   11   48 1    
    25   12   13 ar   
    26   12   77 1    
    27   13   14 ar   
    28   13   15 1    
    29   14   78 1    
    30   15   16 1    
    31   15   79 1    
    32   15   80 1    
    33   16   17 1    
    34   17   18 1    
    35   17   81 1    
    36   17   82 1    
    37   18   19 1    
    38   18   22 1    
    39   18   83 1    
    40   19   20 am   BACKBONE|DICT|INTERRES
    41   19   21 2    
    42   20   84 1    
    43   20   85 1    
    44   22   23 am   BACKBONE|DICT|INTERRES
    45   22   86 1    
    46   23   24 2    
    47   23   25 1    
    48   25   26 1    
    49   25   27 1    
    50   25   87 1    
    51   26   88 1    
    52   26   89 1    
    53   26   90 1    
    54   27   28 am   BACKBONE|DICT|INTERRES
    55   27   91 1    
    56   28   29 2    
    57   28   30 1    
    58   30   31 1    
    59   30   32 1    
    60   30   92 1    
    61   31   93 1    
    62   31   94 1    
    63   31   95 1    
    64   32   33 am   BACKBONE|DICT|INTERRES
    65   32   96 1    
    66   33   34 2    
    67   33   35 1    
    68   35   36 1    
    69   35   37 1    
    70   35   97 1    
    71   36   98 1    
    72   36   99 1    
    73   36  100 1    
    74   37   38 am   BACKBONE|DICT|INTERRES
    75   37  101 1    
    76   38   39 2    
    77   38   40 1    
    78   40   41 1    
    79   40   42 1    
    80   40  102 1    
    81   41  103 1    
    82   41  104 1    
    83   41  105 1    
    84   42   43 am   BACKBONE|DICT|INTERRES
    85   42  106 1    
    86   43   44 2    
    87   43   45 1    
    88   45   46 1    
    89   45   49 1    
    90   45  107 1    
    91   46   47 1    
    92   46  108 1    
    93   46  109 1    
    94   47   48 1    
    95   48  110 1    
    96   48  111 1    
    97   49   50 am   BACKBONE|DICT|INTERRES
    98   49  112 1    
    99   50   51 2    
   100   50   52 1    
   101   52   53 1    
   102   52   54 1    
   103   52  113 1    
   104   53  114 1    
   105   53  115 1    
   106   53  116 1    
   107   54   55 am   BACKBONE|DICT|INTERRES
   108   54  117 1    
   109   55   56 2    
   110   55   57 1    
   111   57   58 1    
   112   57   59 1    
   113   57  118 1    
   114   58  119 1    
   115   58  120 1    
   116   58  121 1    
   117   59   60 am   BACKBONE|DICT|INTERRES
   118   59  122 1    
   119   60   61 2    
   120   60   62 1    
   121   62   63 1    
   122   62   64 1    
   123   62  123 1    
   124   63  124 1    
   125   63  125 1    
   126   63  126 1    
   127   64   65 am   BACKBONE|DICT|INTERRES
   128   64  127 1    
   129   65   66 2    
@<TRIPOS>SUBSTRUCTURE
     1 UNK         1 GROUP             0       ****    0 ROOT    
