@<TRIPOS>MOLECULE
3R135
127   129    1
SMALL
USER_CHARGES


@<TRIPOS>ATOM
      1 CA        -83.5775   25.4668  -72.0699 C.3       0 UNK        -0.1998 
      2 C         -83.4107   26.5627  -73.1112 C.2       0 UNK         0.4909 
      3 O         -84.3292   26.8118  -73.8920 O.2       0 UNK        -0.5240 
      4 N         -82.2407   27.2133  -73.1355 N.am      1 UNK        -0.4739 
      5 CA        -81.9091   28.3250  -74.0434 C.3       1 UNK         0.0864 
      6 C6        -80.8700   29.2881  -73.4142 C.3       11 UNK        -0.0881 
      7 S7        -81.4504   29.9638  -71.8189 S.3       11 UNK        -0.2682 
      8 C8        -79.9081   30.6214  -71.0968 C.3       11 UNK         0.0289 
      9 C9        -78.8064   29.5818  -70.9018 C.ar      11 UNK        -0.0687 
     10 C10       -79.0950   28.2740  -70.4910 C.ar      11 UNK        -0.0823 
     11 C11       -78.0742   27.3287  -70.3480 C.ar      11 UNK        -0.0830 
     12 C12       -76.7504   27.7144  -70.5794 C.ar      11 UNK        -0.1021 
     13 C13       -76.4410   29.0245  -70.9549 C.ar      11 UNK        -0.0753 
     14 C14       -77.4748   29.9507  -71.1179 C.ar      11 UNK        -0.0933 
     15 C15       -74.9875   29.4423  -71.1408 C.3       11 UNK         0.0166 
     16 S16       -74.6463   30.0608  -72.8175 S.3       11 UNK        -0.2615 
     17 C17       -72.8235   30.0250  -72.7984 C.3       11 UNK        -0.0865 
     18 CA        -72.2012   30.6292  -74.0839 C.3       10 UNK         0.0862 
     19 C         -70.6651   30.8442  -73.9271 C.2       10 UNK         0.5551 
     20 N         -69.8148   30.3716  -74.8305 N.am      10 UNK        -0.7319 
     21 O         -70.2315   31.4695  -72.9622 O.2       10 UNK        -0.5018 
     22 N         -72.5912   29.8731  -75.2871 N.am      10 UNK        -0.4509 
     23 C         -72.6706   30.4027  -76.5143 C.2       10 UNK         0.4899 
     24 O         -72.4879   31.5985  -76.7517 O.2       10 UNK        -0.4839 
     25 CA        -72.9916   29.4319  -77.6709 C.3       9 UNK         0.0222 
     26 CB        -72.8432   30.0921  -79.0576 C.3       9 UNK        -0.1966 
     27 N         -72.2219   28.1817  -77.6329 N.am      9 UNK        -0.4218 
     28 C         -70.8939   28.0253  -77.5280 C.2       9 UNK         0.5020 
     29 O         -70.1039   28.9611  -77.3916 O.2       9 UNK        -0.5274 
     30 CA        -70.3645   26.5737  -77.5661 C.3       8 UNK         0.0270 
     31 CB        -68.8528   26.4864  -77.2817 C.3       8 UNK        -0.1976 
     32 N         -71.0721   25.6938  -76.6307 N.am      8 UNK        -0.4313 
     33 C         -72.3053   25.2033  -76.8059 C.2       8 UNK         0.5041 
     34 O         -72.9728   25.4085  -77.8222 O.2       8 UNK        -0.5577 
     35 CA        -72.9367   24.4165  -75.6432 C.3       7 UNK         0.0284 
     36 CB        -71.9763   24.1194  -74.4683 C.3       7 UNK        -0.1958 
     37 N         -74.1468   25.0926  -75.1649 N.am      7 UNK        -0.4454 
     38 C         -74.2364   26.3435  -74.6883 C.2       7 UNK         0.5089 
     39 O         -73.2722   27.1012  -74.5611 O.2       7 UNK        -0.5125 
     40 CA        -75.6324   26.8644  -74.3112 C.3       6 UNK         0.0408 
     41 CB        -76.1463   27.8493  -75.3732 C.3       6 UNK        -0.1791 
     42 N         -76.6488   25.8362  -74.0903 N.am      6 UNK        -0.4762 
     43 C         -76.7115   25.0284  -73.0215 C.2       6 UNK         0.5007 
     44 O         -75.8172   24.9160  -72.1831 O.2       6 UNK        -0.5032 
     45 CA        -78.0172   24.2275  -72.8693 C.3       5 UNK         0.0783 
     46 C46       -79.2162   25.1664  -72.5390 C.3       11 UNK        -0.0857 
     47 S47       -79.7504   25.1007  -70.7985 S.3       11 UNK        -0.2512 
     48 C48       -78.3770   25.9019  -69.8988 C.3       11 UNK         0.0225 
     49 N         -78.2497   23.4674  -74.0961 N.am      5 UNK        -0.4615 
     50 C         -77.7698   22.2426  -74.3465 C.2       4 UNK         0.5053 
     51 O         -77.1680   21.5606  -73.5171 O.2       4 UNK        -0.5105 
     52 CA        -77.9896   21.6792  -75.7652 C.3       4 UNK         0.0263 
     53 CB        -79.2308   20.7728  -75.7949 C.3       4 UNK        -0.1981 
     54 N         -78.1281   22.7174  -76.7917 N.am      4 UNK        -0.4224 
     55 C         -77.1598   23.5759  -77.1448 C.2       3 UNK         0.4895 
     56 O         -76.0125   23.5218  -76.7066 O.2       3 UNK        -0.5091 
     57 CA        -77.5496   24.7242  -78.0957 C.3       3 UNK         0.0250 
     58 CB        -77.2502   24.3394  -79.5528 C.3       3 UNK        -0.1996 
     59 N         -78.9520   25.1500  -77.9781 N.am      3 UNK        -0.4254 
     60 C         -79.5245   25.6042  -76.8539 C.2       2 UNK         0.5004 
     61 O         -78.9187   25.7287  -75.7863 O.2       2 UNK        -0.5226 
     62 CA        -81.0347   25.8798  -76.9160 C.3       2 UNK         0.0269 
     63 CB        -81.8152   24.5633  -77.0809 C.3       2 UNK        -0.1926 
     64 N         -81.4974   26.5314  -75.6910 N.am      2 UNK        -0.4687 
     65 C         -81.4572   27.8469  -75.4447 C.2       1 UNK         0.5165 
     66 O         -81.0858   28.6757  -76.2777 O.2       1 UNK        -0.5079 
     67 H67       -84.4848   25.6350  -71.4905 H         1 UNK         0.0900 
     68 H68       -83.6581   24.4950  -72.5560 H         1 UNK         0.0900 
     69 H69       -82.7380   25.4324  -71.3762 H         1 UNK         0.0900 
     70 H70       -81.5271   26.9772  -72.4607 H         1 UNK         0.2959 
     71 H71       -82.8201   28.9033  -74.2143 H         1 UNK         0.1079 
     72 H72       -79.9177   28.7736  -73.2745 H         1 UNK         0.0837 
     73 H73       -80.6681   30.1314  -74.0775 H         1 UNK         0.0837 
     74 H74       -80.1391   31.0674  -70.1288 H         1 UNK         0.0685 
     75 H75       -79.5551   31.4328  -71.7354 H         1 UNK         0.0685 
     76 H76       -80.1175   27.9853  -70.2920 H         1 UNK         0.1434 
     77 H77       -75.9535   26.9943  -70.4515 H         1 UNK         0.1329 
     78 H78       -77.2363   30.9639  -71.4118 H         1 UNK         0.1335 
     79 H79       -74.7408   30.2185  -70.4151 H         1 UNK         0.0680 
     80 H80       -74.3237   28.6012  -70.9339 H         1 UNK         0.0680 
     81 H81       -72.4884   28.9949  -72.6633 H         1 UNK         0.1032 
     82 H82       -72.4929   30.5744  -71.9147 H         1 UNK         0.1032 
     83 H83       -72.6125   31.6358  -74.1811 H         1 UNK         0.0461 
     84 H84       -68.8288   30.5326  -74.7028 H         1 UNK         0.3453 
     85 H85       -70.1376   29.8893  -75.6631 H         1 UNK         0.3453 
     86 H86       -72.7548   28.8786  -75.1530 H         1 UNK         0.2984 
     87 H87       -74.0381   29.1495  -77.5500 H         1 UNK         0.0554 
     88 H88       -73.4870   30.9679  -79.1479 H         1 UNK         0.0847 
     89 H89       -73.1215   29.4051  -79.8568 H         1 UNK         0.0847 
     90 H90       -71.8187   30.4196  -79.2389 H         1 UNK         0.0847 
     91 H91       -72.7603   27.3226  -77.7219 H         1 UNK         0.3141 
     92 H92       -70.5308   26.2047  -78.5804 H         1 UNK         0.0743 
     93 H93       -68.2844   27.0799  -77.9992 H         1 UNK         0.0784 
     94 H94       -68.6075   26.8565  -76.2853 H         1 UNK         0.0784 
     95 H95       -68.4923   25.4604  -77.3582 H         1 UNK         0.0784 
     96 H96       -70.6239   25.5319  -75.7404 H         1 UNK         0.3213 
     97 H97       -73.2588   23.4613  -76.0607 H         1 UNK         0.0855 
     98 H98       -71.6223   25.0269  -73.9780 H         1 UNK         0.0814 
     99 H99       -71.1045   23.5554  -74.8027 H         1 UNK         0.0814 
    100 H100      -72.4720   23.5140  -73.7091 H         1 UNK         0.0814 
    101 H101      -75.0107   24.5899  -75.3438 H         1 UNK         0.3105 
    102 H102      -75.5220   27.4051  -73.3715 H         1 UNK         0.0547 
    103 H103      -77.1009   28.2859  -75.0786 H         1 UNK         0.0837 
    104 H104      -76.2807   27.3667  -76.3411 H         1 UNK         0.0837 
    105 H105      -75.4464   28.6738  -75.5112 H         1 UNK         0.0837 
    106 H106      -77.4410   25.8425  -74.7311 H         1 UNK         0.3020 
    107 H107      -77.8776   23.5221  -72.0465 H         1 UNK         0.1245 
    108 H108      -80.0897   24.8738  -73.1240 H         1 UNK         0.0781 
    109 H109      -79.0372   26.2071  -72.8186 H         1 UNK         0.0781 
    110 H110      -77.4907   25.2721  -69.9861 H         1 UNK         0.0836 
    111 H111      -78.6268   25.9224  -68.8373 H         1 UNK         0.0836 
    112 H112      -78.6785   23.9883  -74.8523 H         1 UNK         0.3022 
    113 H113      -77.1152   21.0746  -76.0161 H         1 UNK         0.0747 
    114 H114      -79.3560   20.3019  -76.7701 H         1 UNK         0.0793 
    115 H115      -79.1460   19.9715  -75.0593 H         1 UNK         0.0793 
    116 H116      -80.1424   21.3274  -75.5684 H         1 UNK         0.0793 
    117 H117      -79.0387   22.8237  -77.2136 H         1 UNK         0.3047 
    118 H118      -76.9244   25.5806  -77.8363 H         1 UNK         0.0822 
    119 H119      -77.4264   25.1759  -80.2293 H         1 UNK         0.0807 
    120 H120      -77.8641   23.5013  -79.8853 H         1 UNK         0.0807 
    121 H121      -76.2058   24.0460  -79.6706 H         1 UNK         0.0807 
    122 H122      -79.5165   25.0684  -78.8120 H         1 UNK         0.2946 
    123 H123      -81.2342   26.5287  -77.7721 H         1 UNK         0.1144 
    124 H124      -81.6081   23.8642  -76.2692 H         1 UNK         0.0793 
    125 H125      -81.5630   24.0629  -78.0165 H         1 UNK         0.0793 
    126 H126      -82.8906   24.7428  -77.0979 H         1 UNK         0.0793 
    127 H127      -81.7936   25.9273  -74.9395 H         1 UNK         0.2896 
@<TRIPOS>BOND
     1    1    2 1    
     2    1   67 1    
     3    1   68 1    
     4    1   69 1    
     5    2    3 2    
     6    2    4 am   BACKBONE|DICT|INTERRES
     7    4    5 1    
     8    4   70 1    
     9    5    6 1    
    10    5   65 1    
    11    5   71 1    
    12    6    7 1    
    13    6   72 1    
    14    6   73 1    
    15    7    8 1    
    16    8    9 1    
    17    8   74 1    
    18    8   75 1    
    19    9   10 ar   
    20    9   14 ar   
    21   10   11 ar   
    22   10   76 1    
    23   11   12 ar   
    24   11   48 1    
    25   12   13 ar   
    26   12   77 1    
    27   13   14 ar   
    28   13   15 1    
    29   14   78 1    
    30   15   16 1    
    31   15   79 1    
    32   15   80 1    
    33   16   17 1    
    34   17   18 1    
    35   17   81 1    
    36   17   82 1    
    37   18   19 1    
    38   18   22 1    
    39   18   83 1    
    40   19   20 am   BACKBONE|DICT|INTERRES
    41   19   21 2    
    42   20   84 1    
    43   20   85 1    
    44   22   23 am   BACKBONE|DICT|INTERRES
    45   22   86 1    
    46   23   24 2    
    47   23   25 1    
    48   25   26 1    
    49   25   27 1    
    50   25   87 1    
    51   26   88 1    
    52   26   89 1    
    53   26   90 1    
    54   27   28 am   BACKBONE|DICT|INTERRES
    55   27   91 1    
    56   28   29 2    
    57   28   30 1    
    58   30   31 1    
    59   30   32 1    
    60   30   92 1    
    61   31   93 1    
    62   31   94 1    
    63   31   95 1    
    64   32   33 am   BACKBONE|DICT|INTERRES
    65   32   96 1    
    66   33   34 2    
    67   33   35 1    
    68   35   36 1    
    69   35   37 1    
    70   35   97 1    
    71   36   98 1    
    72   36   99 1    
    73   36  100 1    
    74   37   38 am   BACKBONE|DICT|INTERRES
    75   37  101 1    
    76   38   39 2    
    77   38   40 1    
    78   40   41 1    
    79   40   42 1    
    80   40  102 1    
    81   41  103 1    
    82   41  104 1    
    83   41  105 1    
    84   42   43 am   BACKBONE|DICT|INTERRES
    85   42  106 1    
    86   43   44 2    
    87   43   45 1    
    88   45   46 1    
    89   45   49 1    
    90   45  107 1    
    91   46   47 1    
    92   46  108 1    
    93   46  109 1    
    94   47   48 1    
    95   48  110 1    
    96   48  111 1    
    97   49   50 am   BACKBONE|DICT|INTERRES
    98   49  112 1    
    99   50   51 2    
   100   50   52 1    
   101   52   53 1    
   102   52   54 1    
   103   52  113 1    
   104   53  114 1    
   105   53  115 1    
   106   53  116 1    
   107   54   55 am   BACKBONE|DICT|INTERRES
   108   54  117 1    
   109   55   56 2    
   110   55   57 1    
   111   57   58 1    
   112   57   59 1    
   113   57  118 1    
   114   58  119 1    
   115   58  120 1    
   116   58  121 1    
   117   59   60 am   BACKBONE|DICT|INTERRES
   118   59  122 1    
   119   60   61 2    
   120   60   62 1    
   121   62   63 1    
   122   62   64 1    
   123   62  123 1    
   124   63  124 1    
   125   63  125 1    
   126   63  126 1    
   127   64   65 am   BACKBONE|DICT|INTERRES
   128   64  127 1    
   129   65   66 2    
@<TRIPOS>SUBSTRUCTURE
     1 UNK         1 GROUP             0       ****    0 ROOT    
