@<TRIPOS>MOLECULE
3R135
127   129    1
SMALL
USER_CHARGES


@<TRIPOS>ATOM
      1 CA        -80.9105   21.5460  -72.8654 C.3       0 UNK        -0.1998 
      2 C         -81.5366   22.9042  -73.1411 C.2       0 UNK         0.4909 
      3 O         -82.1756   23.0855  -74.1781 O.2       0 UNK        -0.5240 
      4 N         -81.3445   23.8621  -72.2253 N.am      1 UNK        -0.4739 
      5 CA        -81.8017   25.2547  -72.3062 C.3       1 UNK         0.0864 
      6 C6        -81.4916   26.0528  -71.0070 C.3       11 UNK        -0.0881 
      7 S7        -79.8629   25.6984  -70.2448 S.3       11 UNK        -0.2682 
      8 C8        -79.3608   27.3245  -69.6024 C.3       11 UNK         0.0289 
      9 C9        -78.4608   28.0746  -70.5739 C.ar      11 UNK        -0.0687 
     10 C10       -79.0002   29.0049  -71.4684 C.ar      11 UNK        -0.0823 
     11 C11       -78.1663   29.7391  -72.3191 C.ar      11 UNK        -0.0830 
     12 C12       -76.7843   29.5384  -72.2612 C.ar      11 UNK        -0.1021 
     13 C13       -76.2358   28.5871  -71.3991 C.ar      11 UNK        -0.0753 
     14 C14       -77.0778   27.8607  -70.5523 C.ar      11 UNK        -0.0933 
     15 C15       -74.7353   28.3461  -71.4084 C.3       11 UNK         0.0166 
     16 S16       -73.8490   29.7002  -70.5763 S.3       11 UNK        -0.2615 
     17 C17       -72.2642   29.6707  -71.4796 C.3       11 UNK        -0.0865 
     18 CA        -72.2967   30.5520  -72.7666 C.3       10 UNK         0.0862 
     19 C         -71.9490   32.0536  -72.5174 C.2       10 UNK         0.5551 
     20 N         -71.3853   32.7621  -73.4887 N.am      10 UNK        -0.7319 
     21 O         -72.2100   32.5953  -71.4462 O.2       10 UNK        -0.5018 
     22 N         -71.5680   29.9216  -73.8801 N.am      10 UNK        -0.4509 
     23 C         -70.2534   29.6727  -73.9263 C.2       10 UNK         0.4899 
     24 O         -69.4634   29.9715  -73.0296 O.2       10 UNK        -0.4839 
     25 CA        -69.7604   28.9098  -75.1707 C.3       9 UNK         0.0222 
     26 CB        -68.2240   28.8703  -75.2730 C.3       9 UNK        -0.1966 
     27 N         -70.2758   27.5389  -75.1572 N.am      9 UNK        -0.4218 
     28 C         -71.5162   27.1805  -75.5119 C.2       9 UNK         0.5020 
     29 O         -72.3465   27.9627  -75.9808 O.2       9 UNK        -0.5274 
     30 CA        -71.9062   25.7304  -75.2019 C.3       8 UNK         0.0270 
     31 CB        -72.3965   25.6187  -73.7473 C.3       8 UNK        -0.1976 
     32 N         -72.9587   25.2530  -76.0992 N.am      8 UNK        -0.4313 
     33 C         -72.7291   24.6774  -77.2852 C.2       8 UNK         0.5041 
     34 O         -71.6045   24.5389  -77.7705 O.2       8 UNK        -0.5577 
     35 CA        -73.9411   24.1066  -78.0392 C.3       7 UNK         0.0284 
     36 CB        -74.3906   22.7805  -77.4037 C.3       7 UNK        -0.1958 
     37 N         -75.0808   25.0219  -78.1237 N.am      7 UNK        -0.4454 
     38 C         -75.1327   26.0875  -78.9351 C.2       7 UNK         0.5089 
     39 O         -74.1980   26.4523  -79.6494 O.2       7 UNK        -0.5125 
     40 CA        -76.4647   26.8574  -78.9938 C.3       6 UNK         0.0408 
     41 CB        -77.4779   26.1256  -79.8886 C.3       6 UNK        -0.1791 
     42 N         -77.0513   27.0742  -77.6727 N.am      6 UNK        -0.4762 
     43 C         -76.5745   27.9397  -76.7669 C.2       6 UNK         0.5007 
     44 O         -75.6364   28.7072  -76.9821 O.2       6 UNK        -0.5032 
     45 CA        -77.2514   27.9314  -75.3809 C.3       5 UNK         0.0783 
     46 C46       -78.5143   28.8349  -75.3610 C.3       11 UNK        -0.0857 
     47 S47       -78.1220   30.5770  -74.9965 S.3       11 UNK        -0.2512 
     48 C48       -78.7614   30.7516  -73.2933 C.3       11 UNK         0.0225 
     49 N         -77.5534   26.5772  -74.9081 N.am      5 UNK        -0.4615 
     50 C         -76.6671   25.5863  -74.7409 C.2       4 UNK         0.5053 
     51 O         -75.4572   25.7061  -74.9156 O.2       4 UNK        -0.5105 
     52 CA        -77.2355   24.2040  -74.3867 C.3       4 UNK         0.0263 
     53 CB        -77.4798   24.0760  -72.8756 C.3       4 UNK        -0.1981 
     54 N         -78.4685   23.9265  -75.1270 N.am      4 UNK        -0.4224 
     55 C         -78.5153   23.7185  -76.4518 C.2       3 UNK         0.4895 
     56 O         -77.5181   23.6629  -77.1702 O.2       3 UNK        -0.5091 
     57 CA        -79.9076   23.6112  -77.0932 C.3       3 UNK         0.0250 
     58 CB        -80.4431   22.1736  -77.0093 C.3       3 UNK        -0.1996 
     59 N         -80.8640   24.5447  -76.4921 N.am      3 UNK        -0.4254 
     60 C         -80.8075   25.8745  -76.6676 C.2       2 UNK         0.5004 
     61 O         -79.9841   26.4287  -77.3957 O.2       2 UNK        -0.5226 
     62 CA        -81.8008   26.7398  -75.8696 C.3       2 UNK         0.0269 
     63 CB        -83.0859   26.9671  -76.6806 C.3       2 UNK        -0.1926 
     64 N         -82.1447   26.1884  -74.5545 N.am      2 UNK        -0.4687 
     65 C         -81.2634   25.9505  -73.5724 C.2       1 UNK         0.5165 
     66 O         -80.0637   26.2035  -73.6675 O.2       1 UNK        -0.5079 
     67 H67       -81.6562   20.7594  -72.9774 H         1 UNK         0.0900 
     68 H68       -80.1020   21.3535  -73.5698 H         1 UNK         0.0900 
     69 H69       -80.5033   21.4840  -71.8563 H         1 UNK         0.0900 
     70 H70       -80.7802   23.6627  -71.4107 H         1 UNK         0.2959 
     71 H71       -82.8892   25.2162  -72.4001 H         1 UNK         0.1079 
     72 H72       -82.2449   25.8082  -70.2566 H         1 UNK         0.0837 
     73 H73       -81.5978   27.1257  -71.1778 H         1 UNK         0.0837 
     74 H74       -80.2400   27.9195  -69.3508 H         1 UNK         0.0685 
     75 H75       -78.8278   27.1722  -68.6626 H         1 UNK         0.0685 
     76 H76       -80.0694   29.1625  -71.4938 H         1 UNK         0.1434 
     77 H77       -76.1311   30.1095  -72.9069 H         1 UNK         0.1329 
     78 H78       -76.6585   27.1324  -69.8717 H         1 UNK         0.1335 
     79 H79       -74.4860   27.3994  -70.9267 H         1 UNK         0.0680 
     80 H80       -74.4023   28.2626  -72.4445 H         1 UNK         0.0680 
     81 H81       -71.4609   29.9840  -70.8102 H         1 UNK         0.1032 
     82 H82       -72.0409   28.6311  -71.7253 H         1 UNK         0.1032 
     83 H83       -73.3265   30.5751  -73.1251 H         1 UNK         0.0461 
     84 H84       -71.1735   32.3334  -74.3753 H         1 UNK         0.3453 
     85 H85       -71.1673   33.7333  -73.3305 H         1 UNK         0.3453 
     86 H86       -72.1326   29.5967  -74.6582 H         1 UNK         0.2984 
     87 H87       -70.1391   29.4295  -76.0536 H         1 UNK         0.0554 
     88 H88       -67.8092   29.8790  -75.2928 H         1 UNK         0.0847 
     89 H89       -67.9002   28.3710  -76.1864 H         1 UNK         0.0847 
     90 H90       -67.7720   28.3493  -74.4279 H         1 UNK         0.0847 
     91 H91       -69.6746   26.8417  -74.7411 H         1 UNK         0.3141 
     92 H92       -71.0244   25.0956  -75.3149 H         1 UNK         0.0743 
     93 H93       -73.2401   26.2823  -73.5542 H         1 UNK         0.0784 
     94 H94       -72.7109   24.6021  -73.5107 H         1 UNK         0.0784 
     95 H95       -71.6072   25.8863  -73.0437 H         1 UNK         0.0784 
     96 H96       -73.9181   25.3979  -75.7837 H         1 UNK         0.3213 
     97 H97       -73.6148   23.8872  -79.0584 H         1 UNK         0.0855 
     98 H98       -74.7715   22.9261  -76.3924 H         1 UNK         0.0814 
     99 H99       -73.5615   22.0743  -77.3427 H         1 UNK         0.0814 
    100 H100      -75.1769   22.3062  -77.9912 H         1 UNK         0.0814 
    101 H101      -75.9163   24.7592  -77.6090 H         1 UNK         0.3105 
    102 H102      -76.2673   27.8333  -79.4424 H         1 UNK         0.0547 
    103 H103      -77.0765   25.9776  -80.8920 H         1 UNK         0.0837 
    104 H104      -77.7353   25.1431  -79.4920 H         1 UNK         0.0837 
    105 H105      -78.4016   26.6958  -79.9890 H         1 UNK         0.0837 
    106 H106      -77.8777   26.5340  -77.4387 H         1 UNK         0.3020 
    107 H107      -76.5157   28.3255  -74.6788 H         1 UNK         0.1245 
    108 H108      -79.2181   28.4890  -74.6041 H         1 UNK         0.0781 
    109 H109      -79.0624   28.7860  -76.3037 H         1 UNK         0.0781 
    110 H110      -79.8489   30.6674  -73.3215 H         1 UNK         0.0836 
    111 H111      -78.5394   31.7574  -72.9346 H         1 UNK         0.0836 
    112 H112      -78.5192   26.3997  -74.6417 H         1 UNK         0.3022 
    113 H113      -76.4949   23.4541  -74.6717 H         1 UNK         0.0747 
    114 H114      -77.8709   23.0926  -72.6153 H         1 UNK         0.0793 
    115 H115      -76.5509   24.2146  -72.3210 H         1 UNK         0.0793 
    116 H116      -78.1829   24.8251  -72.5138 H         1 UNK         0.0793 
    117 H117      -79.3362   24.0380  -74.6235 H         1 UNK         0.3047 
    118 H118      -79.8033   23.8679  -78.1499 H         1 UNK         0.0822 
    119 H119      -81.4125   22.0826  -77.4995 H         1 UNK         0.0807 
    120 H120      -80.5569   21.8390  -75.9788 H         1 UNK         0.0807 
    121 H121      -79.7637   21.4775  -77.5033 H         1 UNK         0.0807 
    122 H122      -81.5452   24.1586  -75.8456 H         1 UNK         0.2946 
    123 H123      -81.3259   27.7092  -75.7067 H         1 UNK         0.1144 
    124 H124      -83.7596   27.6576  -76.1728 H         1 UNK         0.0793 
    125 H125      -83.6255   26.0349  -76.8530 H         1 UNK         0.0793 
    126 H126      -82.8594   27.3982  -77.6570 H         1 UNK         0.0793 
    127 H127      -83.1069   25.9110  -74.4216 H         1 UNK         0.2896 
@<TRIPOS>BOND
     1    1    2 1    
     2    1   67 1    
     3    1   68 1    
     4    1   69 1    
     5    2    3 2    
     6    2    4 am   BACKBONE|DICT|INTERRES
     7    4    5 1    
     8    4   70 1    
     9    5    6 1    
    10    5   65 1    
    11    5   71 1    
    12    6    7 1    
    13    6   72 1    
    14    6   73 1    
    15    7    8 1    
    16    8    9 1    
    17    8   74 1    
    18    8   75 1    
    19    9   10 ar   
    20    9   14 ar   
    21   10   11 ar   
    22   10   76 1    
    23   11   12 ar   
    24   11   48 1    
    25   12   13 ar   
    26   12   77 1    
    27   13   14 ar   
    28   13   15 1    
    29   14   78 1    
    30   15   16 1    
    31   15   79 1    
    32   15   80 1    
    33   16   17 1    
    34   17   18 1    
    35   17   81 1    
    36   17   82 1    
    37   18   19 1    
    38   18   22 1    
    39   18   83 1    
    40   19   20 am   BACKBONE|DICT|INTERRES
    41   19   21 2    
    42   20   84 1    
    43   20   85 1    
    44   22   23 am   BACKBONE|DICT|INTERRES
    45   22   86 1    
    46   23   24 2    
    47   23   25 1    
    48   25   26 1    
    49   25   27 1    
    50   25   87 1    
    51   26   88 1    
    52   26   89 1    
    53   26   90 1    
    54   27   28 am   BACKBONE|DICT|INTERRES
    55   27   91 1    
    56   28   29 2    
    57   28   30 1    
    58   30   31 1    
    59   30   32 1    
    60   30   92 1    
    61   31   93 1    
    62   31   94 1    
    63   31   95 1    
    64   32   33 am   BACKBONE|DICT|INTERRES
    65   32   96 1    
    66   33   34 2    
    67   33   35 1    
    68   35   36 1    
    69   35   37 1    
    70   35   97 1    
    71   36   98 1    
    72   36   99 1    
    73   36  100 1    
    74   37   38 am   BACKBONE|DICT|INTERRES
    75   37  101 1    
    76   38   39 2    
    77   38   40 1    
    78   40   41 1    
    79   40   42 1    
    80   40  102 1    
    81   41  103 1    
    82   41  104 1    
    83   41  105 1    
    84   42   43 am   BACKBONE|DICT|INTERRES
    85   42  106 1    
    86   43   44 2    
    87   43   45 1    
    88   45   46 1    
    89   45   49 1    
    90   45  107 1    
    91   46   47 1    
    92   46  108 1    
    93   46  109 1    
    94   47   48 1    
    95   48  110 1    
    96   48  111 1    
    97   49   50 am   BACKBONE|DICT|INTERRES
    98   49  112 1    
    99   50   51 2    
   100   50   52 1    
   101   52   53 1    
   102   52   54 1    
   103   52  113 1    
   104   53  114 1    
   105   53  115 1    
   106   53  116 1    
   107   54   55 am   BACKBONE|DICT|INTERRES
   108   54  117 1    
   109   55   56 2    
   110   55   57 1    
   111   57   58 1    
   112   57   59 1    
   113   57  118 1    
   114   58  119 1    
   115   58  120 1    
   116   58  121 1    
   117   59   60 am   BACKBONE|DICT|INTERRES
   118   59  122 1    
   119   60   61 2    
   120   60   62 1    
   121   62   63 1    
   122   62   64 1    
   123   62  123 1    
   124   63  124 1    
   125   63  125 1    
   126   63  126 1    
   127   64   65 am   BACKBONE|DICT|INTERRES
   128   64  127 1    
   129   65   66 2    
@<TRIPOS>SUBSTRUCTURE
     1 UNK         1 GROUP             0       ****    0 ROOT    
