@<TRIPOS>MOLECULE
3R135
127   129    1
SMALL
USER_CHARGES


@<TRIPOS>ATOM
      1 CA        -80.4988   25.7209  -70.5852 C.3       0 UNK        -0.1998 
      2 C         -81.7080   26.0416  -71.4503 C.2       0 UNK         0.4909 
      3 O         -82.7438   25.3896  -71.3181 O.2       0 UNK        -0.5240 
      4 N         -81.5858   27.0386  -72.3373 N.am      1 UNK        -0.4739 
      5 CA        -82.6257   27.4364  -73.2968 C.3       1 UNK         0.0864 
      6 C6        -82.4299   28.8922  -73.7971 C.3       11 UNK        -0.0881 
      7 S7        -80.7641   29.2299  -74.4735 S.3       11 UNK        -0.2682 
      8 C8        -80.0327   30.3196  -73.2093 C.3       11 UNK         0.0289 
      9 C9        -78.6027   29.9028  -72.9065 C.ar      11 UNK        -0.0687 
     10 C10       -78.3321   29.0668  -71.8197 C.ar      11 UNK        -0.0823 
     11 C11       -77.0259   28.6459  -71.5541 C.ar      11 UNK        -0.0830 
     12 C12       -75.9834   29.0885  -72.3733 C.ar      11 UNK        -0.1021 
     13 C13       -76.2425   29.9142  -73.4699 C.ar      11 UNK        -0.0753 
     14 C14       -77.5529   30.3308  -73.7246 C.ar      11 UNK        -0.0933 
     15 C15       -75.1180   30.2778  -74.4250 C.3       11 UNK         0.0166 
     16 S16       -74.0222   31.5655  -73.7668 S.3       11 UNK        -0.2615 
     17 C17       -72.7497   31.5740  -75.0797 C.3       11 UNK        -0.0865 
     18 CA        -71.3952   30.8894  -74.7223 C.3       10 UNK         0.0862 
     19 C         -70.4556   31.6717  -73.7526 C.2       10 UNK         0.5551 
     20 N         -70.8297   32.8576  -73.2903 N.am      10 UNK        -0.7319 
     21 O         -69.3445   31.2276  -73.4687 O.2       10 UNK        -0.5018 
     22 N         -71.5119   29.4440  -74.4483 N.am      10 UNK        -0.4509 
     23 C         -71.6920   28.8464  -73.2581 C.2       10 UNK         0.4899 
     24 O         -71.8714   29.4498  -72.1996 O.2       10 UNK        -0.4839 
     25 CA        -71.6472   27.3067  -73.2374 C.3       9 UNK         0.0222 
     26 CB        -72.4666   26.7075  -72.0818 C.3       9 UNK        -0.1966 
     27 N         -72.1225   26.7357  -74.4979 N.am      9 UNK        -0.4218 
     28 C         -71.3595   26.0810  -75.3818 C.2       9 UNK         0.5020 
     29 O         -70.1580   25.8578  -75.2260 O.2       9 UNK        -0.5274 
     30 CA        -72.0442   25.6071  -76.6745 C.3       8 UNK         0.0270 
     31 CB        -72.7553   24.2629  -76.4423 C.3       8 UNK        -0.1976 
     32 N         -73.0014   26.5618  -77.2383 N.am      8 UNK        -0.4313 
     33 C         -72.7755   27.8407  -77.5653 C.2       8 UNK         0.5041 
     34 O         -71.7036   28.4179  -77.3796 O.2       8 UNK        -0.5577 
     35 CA        -73.9499   28.6236  -78.1853 C.3       7 UNK         0.0284 
     36 CB        -74.1030   28.3048  -79.6853 C.3       7 UNK        -0.1958 
     37 N         -75.2213   28.4703  -77.4615 N.am      7 UNK        -0.4454 
     38 C         -75.9606   27.3663  -77.2883 C.2       7 UNK         0.5089 
     39 O         -75.7326   26.2822  -77.8294 O.2       7 UNK        -0.5125 
     40 CA        -77.1239   27.4869  -76.2943 C.3       6 UNK         0.0408 
     41 CB        -78.4694   27.4741  -77.0349 C.3       6 UNK        -0.1791 
     42 N         -77.1006   26.4275  -75.2803 N.am      6 UNK        -0.4762 
     43 C         -76.0794   26.1556  -74.4487 C.2       6 UNK         0.5007 
     44 O         -74.9973   26.7456  -74.4781 O.2       6 UNK        -0.5032 
     45 CA        -76.2785   25.0142  -73.4337 C.3       5 UNK         0.0783 
     46 C46       -77.0598   25.4669  -72.1698 C.3       11 UNK        -0.0857 
     47 S47       -75.9508   26.1436  -70.8868 S.3       11 UNK        -0.2512 
     48 C48       -76.7504   27.7066  -70.3871 C.3       11 UNK         0.0225 
     49 N         -76.9153   23.8627  -74.0758 N.am      5 UNK        -0.4615 
     50 C         -76.4203   22.6172  -74.0819 C.2       4 UNK         0.5053 
     51 O         -75.3736   22.2927  -73.5205 O.2       4 UNK        -0.5105 
     52 CA        -77.2230   21.5354  -74.8329 C.3       4 UNK         0.0263 
     53 CB        -78.0787   20.7244  -73.8462 C.3       4 UNK        -0.1981 
     54 N         -78.0900   22.0783  -75.8802 N.am      4 UNK        -0.4224 
     55 C         -77.6567   22.6715  -77.0006 C.2       3 UNK         0.4895 
     56 O         -76.4758   22.6818  -77.3483 O.2       3 UNK        -0.5091 
     57 CA        -78.7016   23.3919  -77.8769 C.3       3 UNK         0.0250 
     58 CB        -78.9361   22.6077  -79.1789 C.3       3 UNK        -0.1996 
     59 N         -80.0059   23.6676  -77.2503 N.am      3 UNK        -0.4254 
     60 C         -80.2287   24.3532  -76.1197 C.2       2 UNK         0.5004 
     61 O         -79.3353   24.7654  -75.3732 O.2       2 UNK        -0.5226 
     62 CA        -81.6948   24.5802  -75.7375 C.3       2 UNK         0.0269 
     63 CB        -82.3337   23.2848  -75.2036 C.3       2 UNK        -0.1926 
     64 N         -81.7515   25.6122  -74.7075 N.am      2 UNK        -0.4687 
     65 C         -82.7793   26.4344  -74.4653 C.2       1 UNK         0.5165 
     66 O         -83.8283   26.4164  -75.1116 O.2       1 UNK        -0.5079 
     67 H67       -80.7610   25.7966  -69.5303 H         1 UNK         0.0900 
     68 H68       -79.6695   26.3987  -70.7762 H         1 UNK         0.0900 
     69 H69       -80.1579   24.7043  -70.7796 H         1 UNK         0.0900 
     70 H70       -80.7136   27.5394  -72.4256 H         1 UNK         0.2959 
     71 H71       -83.5820   27.4111  -72.7688 H         1 UNK         0.1079 
     72 H72       -83.1660   29.1351  -74.5660 H         1 UNK         0.0837 
     73 H73       -82.6416   29.5844  -72.9814 H         1 UNK         0.0837 
     74 H74       -80.6215   30.3014  -72.2914 H         1 UNK         0.0685 
     75 H75       -80.0570   31.3500  -73.5671 H         1 UNK         0.0685 
     76 H76       -79.1424   28.7398  -71.1838 H         1 UNK         0.1434 
     77 H77       -74.9712   28.7611  -72.1822 H         1 UNK         0.1329 
     78 H78       -77.7642   30.9599  -74.5784 H         1 UNK         0.1335 
     79 H79       -74.5294   29.3848  -74.6395 H         1 UNK         0.0680 
     80 H80       -75.5266   30.6196  -75.3765 H         1 UNK         0.0680 
     81 H81       -72.5813   32.6078  -75.3858 H         1 UNK         0.1032 
     82 H82       -73.1561   31.0945  -75.9709 H         1 UNK         0.1032 
     83 H83       -70.8284   30.9099  -75.6541 H         1 UNK         0.0461 
     84 H84       -71.7505   33.2166  -73.4883 H         1 UNK         0.3453 
     85 H85       -70.2083   33.3686  -72.6832 H         1 UNK         0.3453 
     86 H86       -71.3722   28.8505  -75.2576 H         1 UNK         0.2984 
     87 H87       -70.6028   27.0385  -73.0683 H         1 UNK         0.0554 
     88 H88       -72.1066   27.0568  -71.1134 H         1 UNK         0.0847 
     89 H89       -72.4090   25.6192  -72.0747 H         1 UNK         0.0847 
     90 H90       -73.5156   26.9848  -72.1616 H         1 UNK         0.0847 
     91 H91       -73.1166   26.8486  -74.6912 H         1 UNK         0.3141 
     92 H92       -71.2632   25.4581  -77.4226 H         1 UNK         0.0743 
     93 H93       -72.0659   23.5184  -76.0417 H         1 UNK         0.0784 
     94 H94       -73.5801   24.3591  -75.7344 H         1 UNK         0.0784 
     95 H95       -73.1611   23.8614  -77.3713 H         1 UNK         0.0784 
     96 H96       -73.9400   26.2118  -77.4237 H         1 UNK         0.3213 
     97 H97       -73.6922   29.6811  -78.1059 H         1 UNK         0.0855 
     98 H98       -74.3395   27.2553  -79.8623 H         1 UNK         0.0814 
     99 H99       -73.1788   28.5210  -80.2229 H         1 UNK         0.0814 
    100 H100      -74.8900   28.9065  -80.1398 H         1 UNK         0.0814 
    101 H101      -75.5209   29.2976  -76.9675 H         1 UNK         0.3105 
    102 H102      -77.0439   28.4348  -75.7635 H         1 UNK         0.0547 
    103 H103      -78.5574   28.3362  -77.6970 H         1 UNK         0.0837 
    104 H104      -78.5856   26.5818  -77.6483 H         1 UNK         0.0837 
    105 H105      -79.3079   27.5112  -76.3411 H         1 UNK         0.0837 
    106 H106      -77.9420   25.8580  -75.2275 H         1 UNK         0.3020 
    107 H107      -75.2711   24.7236  -73.1255 H         1 UNK         0.1245 
    108 H108      -77.5630   24.6124  -71.7145 H         1 UNK         0.0781 
    109 H109      -77.8534   26.1722  -72.4205 H         1 UNK         0.0781 
    110 H110      -77.6685   27.4719  -69.8471 H         1 UNK         0.0836 
    111 H111      -76.1021   28.2163  -69.6732 H         1 UNK         0.0836 
    112 H112      -77.7803   24.0482  -74.5754 H         1 UNK         0.3022 
    113 H113      -76.5050   20.8602  -75.3034 H         1 UNK         0.0747 
    114 H114      -77.4586   20.2803  -73.0661 H         1 UNK         0.0793 
    115 H115      -78.5982   19.9079  -74.3481 H         1 UNK         0.0793 
    116 H116      -78.8261   21.3473  -73.3527 H         1 UNK         0.0793 
    117 H117      -79.0785   22.1123  -75.6806 H         1 UNK         0.3047 
    118 H118      -78.2600   24.3542  -78.1405 H         1 UNK         0.0822 
    119 H119      -79.5698   23.1635  -79.8703 H         1 UNK         0.0807 
    120 H120      -79.4083   21.6431  -78.9886 H         1 UNK         0.0807 
    121 H121      -77.9947   22.4130  -79.6953 H         1 UNK         0.0807 
    122 H122      -80.8101   23.3465  -77.7707 H         1 UNK         0.2946 
    123 H123      -82.2314   24.9237  -76.6251 H         1 UNK         0.1144 
    124 H124      -82.3119   22.4917  -75.9519 H         1 UNK         0.0793 
    125 H125      -83.3784   23.4411  -74.9339 H         1 UNK         0.0793 
    126 H126      -81.8142   22.9161  -74.3180 H         1 UNK         0.0793 
    127 H127      -80.8953   25.7243  -74.1802 H         1 UNK         0.2896 
@<TRIPOS>BOND
     1    1    2 1    
     2    1   67 1    
     3    1   68 1    
     4    1   69 1    
     5    2    3 2    
     6    2    4 am   BACKBONE|DICT|INTERRES
     7    4    5 1    
     8    4   70 1    
     9    5    6 1    
    10    5   65 1    
    11    5   71 1    
    12    6    7 1    
    13    6   72 1    
    14    6   73 1    
    15    7    8 1    
    16    8    9 1    
    17    8   74 1    
    18    8   75 1    
    19    9   10 ar   
    20    9   14 ar   
    21   10   11 ar   
    22   10   76 1    
    23   11   12 ar   
    24   11   48 1    
    25   12   13 ar   
    26   12   77 1    
    27   13   14 ar   
    28   13   15 1    
    29   14   78 1    
    30   15   16 1    
    31   15   79 1    
    32   15   80 1    
    33   16   17 1    
    34   17   18 1    
    35   17   81 1    
    36   17   82 1    
    37   18   19 1    
    38   18   22 1    
    39   18   83 1    
    40   19   20 am   BACKBONE|DICT|INTERRES
    41   19   21 2    
    42   20   84 1    
    43   20   85 1    
    44   22   23 am   BACKBONE|DICT|INTERRES
    45   22   86 1    
    46   23   24 2    
    47   23   25 1    
    48   25   26 1    
    49   25   27 1    
    50   25   87 1    
    51   26   88 1    
    52   26   89 1    
    53   26   90 1    
    54   27   28 am   BACKBONE|DICT|INTERRES
    55   27   91 1    
    56   28   29 2    
    57   28   30 1    
    58   30   31 1    
    59   30   32 1    
    60   30   92 1    
    61   31   93 1    
    62   31   94 1    
    63   31   95 1    
    64   32   33 am   BACKBONE|DICT|INTERRES
    65   32   96 1    
    66   33   34 2    
    67   33   35 1    
    68   35   36 1    
    69   35   37 1    
    70   35   97 1    
    71   36   98 1    
    72   36   99 1    
    73   36  100 1    
    74   37   38 am   BACKBONE|DICT|INTERRES
    75   37  101 1    
    76   38   39 2    
    77   38   40 1    
    78   40   41 1    
    79   40   42 1    
    80   40  102 1    
    81   41  103 1    
    82   41  104 1    
    83   41  105 1    
    84   42   43 am   BACKBONE|DICT|INTERRES
    85   42  106 1    
    86   43   44 2    
    87   43   45 1    
    88   45   46 1    
    89   45   49 1    
    90   45  107 1    
    91   46   47 1    
    92   46  108 1    
    93   46  109 1    
    94   47   48 1    
    95   48  110 1    
    96   48  111 1    
    97   49   50 am   BACKBONE|DICT|INTERRES
    98   49  112 1    
    99   50   51 2    
   100   50   52 1    
   101   52   53 1    
   102   52   54 1    
   103   52  113 1    
   104   53  114 1    
   105   53  115 1    
   106   53  116 1    
   107   54   55 am   BACKBONE|DICT|INTERRES
   108   54  117 1    
   109   55   56 2    
   110   55   57 1    
   111   57   58 1    
   112   57   59 1    
   113   57  118 1    
   114   58  119 1    
   115   58  120 1    
   116   58  121 1    
   117   59   60 am   BACKBONE|DICT|INTERRES
   118   59  122 1    
   119   60   61 2    
   120   60   62 1    
   121   62   63 1    
   122   62   64 1    
   123   62  123 1    
   124   63  124 1    
   125   63  125 1    
   126   63  126 1    
   127   64   65 am   BACKBONE|DICT|INTERRES
   128   64  127 1    
   129   65   66 2    
@<TRIPOS>SUBSTRUCTURE
     1 UNK         1 GROUP             0       ****    0 ROOT    
