@<TRIPOS>MOLECULE
3R135
127   129    1
SMALL
USER_CHARGES


@<TRIPOS>ATOM
      1 CA        -81.6506   31.5902  -74.9284 C.3       0 UNK        -0.1998 
      2 C         -80.5427   30.6538  -74.4707 C.2       0 UNK         0.4909 
      3 O         -79.3669   30.9968  -74.5880 O.2       0 UNK        -0.5240 
      4 N         -80.9117   29.4793  -73.9447 N.am      1 UNK        -0.4739 
      5 CA        -79.9935   28.4298  -73.4929 C.3       1 UNK         0.0864 
      6 C6        -80.6892   27.4435  -72.5212 C.3       11 UNK        -0.0881 
      7 S7        -81.2656   28.2870  -71.0055 S.3       11 UNK        -0.2682 
      8 C8        -80.1937   27.5782  -69.7080 C.3       11 UNK         0.0289 
      9 C9        -78.7059   27.6452  -70.0378 C.ar      11 UNK        -0.0687 
     10 C10       -77.9196   26.4945  -69.9307 C.ar      11 UNK        -0.0823 
     11 C11       -76.5591   26.5256  -70.2513 C.ar      11 UNK        -0.0830 
     12 C12       -75.9848   27.7264  -70.6835 C.ar      11 UNK        -0.1021 
     13 C13       -76.7647   28.8787  -70.8147 C.ar      11 UNK        -0.0753 
     14 C14       -78.1160   28.8401  -70.4614 C.ar      11 UNK        -0.0933 
     15 C15       -76.1621   30.1521  -71.3836 C.3       11 UNK         0.0166 
     16 S16       -76.0273   30.0316  -73.1951 S.3       11 UNK        -0.2615 
     17 C17       -76.0262   31.7880  -73.6962 C.3       11 UNK        -0.0865 
     18 CA        -74.6411   32.4980  -73.7985 C.3       10 UNK         0.0862 
     19 C         -74.0189   32.8994  -72.4240 C.2       10 UNK         0.5551 
     20 N         -72.7019   32.9952  -72.2959 N.am      10 UNK        -0.7319 
     21 O         -74.7405   33.1854  -71.4716 O.2       10 UNK        -0.5018 
     22 N         -73.7415   31.9095  -74.8131 N.am      10 UNK        -0.4509 
     23 C         -72.9336   30.8483  -74.6854 C.2       10 UNK         0.4899 
     24 O         -72.7599   30.2153  -73.6422 O.2       10 UNK        -0.4839 
     25 CA        -72.1343   30.4570  -75.9402 C.3       9 UNK         0.0222 
     26 CB        -70.7566   31.1399  -75.9378 C.3       9 UNK        -0.1966 
     27 N         -71.9541   29.0058  -75.9898 N.am      9 UNK        -0.4218 
     28 C         -72.9164   28.1475  -76.3474 C.2       9 UNK         0.5020 
     29 O         -73.9919   28.4913  -76.8449 O.2       9 UNK        -0.5274 
     30 CA        -72.6396   26.6653  -76.0458 C.3       8 UNK         0.0270 
     31 CB        -72.7659   26.4041  -74.5356 C.3       8 UNK        -0.1976 
     32 N         -73.5734   25.7966  -76.7651 N.am      8 UNK        -0.4313 
     33 C         -73.4371   25.4477  -78.0503 C.2       8 UNK         0.5041 
     34 O         -72.4550   25.7356  -78.7387 O.2       8 UNK        -0.5577 
     35 CA        -74.6033   24.6490  -78.6592 C.3       7 UNK         0.0284 
     36 CB        -74.3261   24.1448  -80.0923 C.3       7 UNK        -0.1958 
     37 N         -75.0523   23.5595  -77.7834 N.am      7 UNK        -0.4454 
     38 C         -74.3791   22.4520  -77.4385 C.2       7 UNK         0.5089 
     39 O         -73.2417   22.1812  -77.8271 O.2       7 UNK        -0.5125 
     40 CA        -75.1336   21.4744  -76.5154 C.3       6 UNK         0.0408 
     41 CB        -74.2377   20.3516  -75.9489 C.3       6 UNK        -0.1791 
     42 N         -75.8794   22.1573  -75.4506 N.am      6 UNK        -0.4762 
     43 C         -75.3766   22.8720  -74.4283 C.2       6 UNK         0.5007 
     44 O         -74.1685   23.0107  -74.2409 O.2       6 UNK        -0.5032 
     45 CA        -76.3894   23.5512  -73.4704 C.3       5 UNK         0.0783 
     46 C46       -75.9281   24.9488  -72.9854 C.3       11 UNK        -0.0857 
     47 S47       -74.7110   24.9076  -71.6233 S.3       11 UNK        -0.2512 
     48 C48       -75.7323   25.2470  -70.1486 C.3       11 UNK         0.0225 
     49 N         -77.6946   23.6731  -74.1197 N.am      5 UNK        -0.4615 
     50 C         -78.7647   22.8967  -73.9185 C.2       4 UNK         0.5053 
     51 O         -78.8039   21.9896  -73.0882 O.2       4 UNK        -0.5105 
     52 CA        -79.9942   23.1600  -74.8114 C.3       4 UNK         0.0263 
     53 CB        -81.1158   23.8284  -74.0033 C.3       4 UNK        -0.1981 
     54 N         -79.6924   23.9806  -75.9917 N.am      4 UNK        -0.4224 
     55 C         -78.9824   23.5497  -77.0458 C.2       3 UNK         0.4895 
     56 O         -78.5382   22.4062  -77.1470 O.2       3 UNK        -0.5091 
     57 CA        -78.6462   24.5788  -78.1387 C.3       3 UNK         0.0250 
     58 CB        -79.7636   24.6273  -79.1919 C.3       3 UNK        -0.1996 
     59 N         -78.4020   25.9305  -77.6265 N.am      3 UNK        -0.4254 
     60 C         -77.4772   26.2776  -76.7191 C.2       2 UNK         0.5004 
     61 O         -76.6870   25.4805  -76.2118 O.2       2 UNK        -0.5226 
     62 CA        -77.4282   27.7562  -76.3000 C.3       2 UNK         0.0269 
     63 CB        -77.8923   28.7195  -77.4132 C.3       2 UNK        -0.1926 
     64 N         -78.1524   28.0537  -75.0592 N.am      2 UNK        -0.4687 
     65 C         -79.4071   27.7160  -74.7252 C.2       1 UNK         0.5165 
     66 O         -80.1158   26.9326  -75.3628 O.2       1 UNK        -0.5079 
     67 H67       -81.5878   32.5357  -74.3905 H         1 UNK         0.0900 
     68 H68       -81.5502   31.7964  -75.9937 H         1 UNK         0.0900 
     69 H69       -82.6401   31.1670  -74.7561 H         1 UNK         0.0900 
     70 H70       -81.8931   29.2505  -73.8801 H         1 UNK         0.2959 
     71 H71       -79.1707   28.9070  -72.9583 H         1 UNK         0.1079 
     72 H72       -80.0152   26.6286  -72.2518 H         1 UNK         0.0837 
     73 H73       -81.5543   26.9795  -72.9984 H         1 UNK         0.0837 
     74 H74       -80.5046   26.5466  -69.5359 H         1 UNK         0.0685 
     75 H75       -80.3716   28.1130  -68.7742 H         1 UNK         0.0685 
     76 H76       -78.3715   25.5673  -69.6049 H         1 UNK         0.1434 
     77 H77       -74.9390   27.7563  -70.9580 H         1 UNK         0.1329 
     78 H78       -78.7223   29.7305  -70.5577 H         1 UNK         0.1335 
     79 H79       -75.1723   30.3231  -70.9578 H         1 UNK         0.0680 
     80 H80       -76.7733   31.0130  -71.1089 H         1 UNK         0.0680 
     81 H81       -76.5056   31.8251  -74.6756 H         1 UNK         0.1032 
     82 H82       -76.7002   32.3483  -73.0461 H         1 UNK         0.1032 
     83 H83       -74.8684   33.4747  -74.2275 H         1 UNK         0.0461 
     84 H84       -72.3096   33.2733  -71.4104 H         1 UNK         0.3453 
     85 H85       -72.0985   32.7472  -73.0629 H         1 UNK         0.3453 
     86 H86       -73.7641   32.3718  -75.7107 H         1 UNK         0.2984 
     87 H87       -72.6802   30.7776  -76.8303 H         1 UNK         0.0554 
     88 H88       -70.8585   32.2259  -75.9327 H         1 UNK         0.0847 
     89 H89       -70.1807   30.8750  -76.8247 H         1 UNK         0.0847 
     90 H90       -70.1688   30.8643  -75.0610 H         1 UNK         0.0847 
     91 H91       -71.1245   28.6423  -75.5434 H         1 UNK         0.3141 
     92 H92       -71.6210   26.4244  -76.3581 H         1 UNK         0.0743 
     93 H93       -71.9544   26.8830  -73.9868 H         1 UNK         0.0784 
     94 H94       -72.7258   25.3397  -74.3036 H         1 UNK         0.0784 
     95 H95       -73.6964   26.8062  -74.1343 H         1 UNK         0.0784 
     96 H96       -74.4423   25.5687  -76.2978 H         1 UNK         0.3213 
     97 H97       -75.4353   25.3504  -78.7282 H         1 UNK         0.0855 
     98 H98       -73.4599   23.4839  -80.1326 H         1 UNK         0.0814 
     99 H99       -74.1250   24.9796  -80.7648 H         1 UNK         0.0814 
    100 H100      -75.1818   23.6037  -80.4955 H         1 UNK         0.0814 
    101 H101      -75.9374   23.7199  -77.3194 H         1 UNK         0.3105 
    102 H102      -75.8873   20.9969  -77.1434 H         1 UNK         0.0547 
    103 H103      -74.8046   19.6742  -75.3108 H         1 UNK         0.0837 
    104 H104      -73.4064   20.7475  -75.3652 H         1 UNK         0.0837 
    105 H105      -73.8089   19.7538  -76.7539 H         1 UNK         0.0837 
    106 H106      -76.8869   22.1190  -75.5443 H         1 UNK         0.3020 
    107 H107      -76.4812   22.8975  -72.6002 H         1 UNK         0.1245 
    108 H108      -75.5127   25.5234  -73.8123 H         1 UNK         0.0781 
    109 H109      -76.7922   25.5272  -72.6585 H         1 UNK         0.0781 
    110 H110      -75.0785   25.3217  -69.2789 H         1 UNK         0.0836 
    111 H111      -76.3762   24.3834  -69.9754 H         1 UNK         0.0836 
    112 H112      -77.7292   24.3700  -74.8553 H         1 UNK         0.3022 
    113 H113      -80.3573   22.1895  -75.1564 H         1 UNK         0.0747 
    114 H114      -82.0089   23.9795  -74.6097 H         1 UNK         0.0793 
    115 H115      -81.4033   23.2143  -73.1487 H         1 UNK         0.0793 
    116 H116      -80.8031   24.7968  -73.6180 H         1 UNK         0.0793 
    117 H117      -79.9783   24.9553  -75.9587 H         1 UNK         0.3047 
    118 H118      -77.7335   24.2444  -78.6342 H         1 UNK         0.0822 
    119 H119      -79.4961   25.2772  -80.0253 H         1 UNK         0.0807 
    120 H120      -80.7019   24.9900  -78.7698 H         1 UNK         0.0807 
    121 H121      -79.9537   23.6358  -79.6057 H         1 UNK         0.0807 
    122 H122      -79.0275   26.6529  -77.9531 H         1 UNK         0.2946 
    123 H123      -76.3797   27.9723  -76.0945 H         1 UNK         0.1144 
    124 H124      -77.6747   29.7531  -77.1427 H         1 UNK         0.0793 
    125 H125      -78.9643   28.6521  -77.6013 H         1 UNK         0.0793 
    126 H126      -77.3720   28.5200  -78.3513 H         1 UNK         0.0793 
    127 H127      -77.6703   28.6999  -74.4457 H         1 UNK         0.2896 
@<TRIPOS>BOND
     1    1    2 1    
     2    1   67 1    
     3    1   68 1    
     4    1   69 1    
     5    2    3 2    
     6    2    4 am   BACKBONE|DICT|INTERRES
     7    4    5 1    
     8    4   70 1    
     9    5    6 1    
    10    5   65 1    
    11    5   71 1    
    12    6    7 1    
    13    6   72 1    
    14    6   73 1    
    15    7    8 1    
    16    8    9 1    
    17    8   74 1    
    18    8   75 1    
    19    9   10 ar   
    20    9   14 ar   
    21   10   11 ar   
    22   10   76 1    
    23   11   12 ar   
    24   11   48 1    
    25   12   13 ar   
    26   12   77 1    
    27   13   14 ar   
    28   13   15 1    
    29   14   78 1    
    30   15   16 1    
    31   15   79 1    
    32   15   80 1    
    33   16   17 1    
    34   17   18 1    
    35   17   81 1    
    36   17   82 1    
    37   18   19 1    
    38   18   22 1    
    39   18   83 1    
    40   19   20 am   BACKBONE|DICT|INTERRES
    41   19   21 2    
    42   20   84 1    
    43   20   85 1    
    44   22   23 am   BACKBONE|DICT|INTERRES
    45   22   86 1    
    46   23   24 2    
    47   23   25 1    
    48   25   26 1    
    49   25   27 1    
    50   25   87 1    
    51   26   88 1    
    52   26   89 1    
    53   26   90 1    
    54   27   28 am   BACKBONE|DICT|INTERRES
    55   27   91 1    
    56   28   29 2    
    57   28   30 1    
    58   30   31 1    
    59   30   32 1    
    60   30   92 1    
    61   31   93 1    
    62   31   94 1    
    63   31   95 1    
    64   32   33 am   BACKBONE|DICT|INTERRES
    65   32   96 1    
    66   33   34 2    
    67   33   35 1    
    68   35   36 1    
    69   35   37 1    
    70   35   97 1    
    71   36   98 1    
    72   36   99 1    
    73   36  100 1    
    74   37   38 am   BACKBONE|DICT|INTERRES
    75   37  101 1    
    76   38   39 2    
    77   38   40 1    
    78   40   41 1    
    79   40   42 1    
    80   40  102 1    
    81   41  103 1    
    82   41  104 1    
    83   41  105 1    
    84   42   43 am   BACKBONE|DICT|INTERRES
    85   42  106 1    
    86   43   44 2    
    87   43   45 1    
    88   45   46 1    
    89   45   49 1    
    90   45  107 1    
    91   46   47 1    
    92   46  108 1    
    93   46  109 1    
    94   47   48 1    
    95   48  110 1    
    96   48  111 1    
    97   49   50 am   BACKBONE|DICT|INTERRES
    98   49  112 1    
    99   50   51 2    
   100   50   52 1    
   101   52   53 1    
   102   52   54 1    
   103   52  113 1    
   104   53  114 1    
   105   53  115 1    
   106   53  116 1    
   107   54   55 am   BACKBONE|DICT|INTERRES
   108   54  117 1    
   109   55   56 2    
   110   55   57 1    
   111   57   58 1    
   112   57   59 1    
   113   57  118 1    
   114   58  119 1    
   115   58  120 1    
   116   58  121 1    
   117   59   60 am   BACKBONE|DICT|INTERRES
   118   59  122 1    
   119   60   61 2    
   120   60   62 1    
   121   62   63 1    
   122   62   64 1    
   123   62  123 1    
   124   63  124 1    
   125   63  125 1    
   126   63  126 1    
   127   64   65 am   BACKBONE|DICT|INTERRES
   128   64  127 1    
   129   65   66 2    
@<TRIPOS>SUBSTRUCTURE
     1 UNK         1 GROUP             0       ****    0 ROOT    
