@<TRIPOS>MOLECULE
3R135
127   129    1
SMALL
USER_CHARGES


@<TRIPOS>ATOM
      1 CA        -84.4837   30.6585  -75.1530 C.3       0 UNK        -0.1998 
      2 C         -82.9915   30.3812  -75.0505 C.2       0 UNK         0.4909 
      3 O         -82.1837   31.2737  -75.3089 O.2       0 UNK        -0.5240 
      4 N         -82.6201   29.1507  -74.6731 N.am      1 UNK        -0.4739 
      5 CA        -81.2289   28.7055  -74.5162 C.3       1 UNK         0.0864 
      6 C6        -81.1433   27.3423  -73.7851 C.3       11 UNK        -0.0881 
      7 S7        -81.7761   27.4005  -72.0780 S.3       11 UNK        -0.2682 
      8 C8        -80.5937   26.2859  -71.2369 C.3       11 UNK         0.0289 
      9 C9        -79.2201   26.8767  -70.9004 C.ar      11 UNK        -0.0687 
     10 C10       -78.3681   26.1329  -70.0765 C.ar      11 UNK        -0.0823 
     11 C11       -77.1139   26.6282  -69.7066 C.ar      11 UNK        -0.0830 
     12 C12       -76.6988   27.8756  -70.1795 C.ar      11 UNK        -0.1021 
     13 C13       -77.5331   28.6304  -71.0059 C.ar      11 UNK        -0.0753 
     14 C14       -78.7870   28.1276  -71.3627 C.ar      11 UNK        -0.0933 
     15 C15       -77.1029   30.0070  -71.4877 C.3       11 UNK         0.0166 
     16 S16       -76.3447   29.9307  -73.1371 S.3       11 UNK        -0.2615 
     17 C17       -74.6323   29.4247  -72.7471 C.3       11 UNK        -0.0865 
     18 CA        -73.6206   29.8997  -73.8285 C.3       10 UNK         0.0862 
     19 C         -72.1424   29.6133  -73.4328 C.2       10 UNK         0.5551 
     20 N         -71.2609   29.2627  -74.3627 N.am      10 UNK        -0.7319 
     21 O         -71.7805   29.7192  -72.2638 O.2       10 UNK        -0.5018 
     22 N         -73.9565   29.3778  -75.1653 N.am      10 UNK        -0.4509 
     23 C         -74.2713   30.1227  -76.2310 C.2       10 UNK         0.4899 
     24 O         -74.3655   31.3515  -76.2068 O.2       10 UNK        -0.4839 
     25 CA        -74.5135   29.3614  -77.5535 C.3       9 UNK         0.0222 
     26 CB        -74.4687   30.2936  -78.7824 C.3       9 UNK        -0.1966 
     27 N         -73.6285   28.2077  -77.7802 N.am      9 UNK        -0.4218 
     28 C         -72.2892   28.1666  -77.7203 C.2       9 UNK         0.5020 
     29 O         -71.5931   29.0958  -77.3065 O.2       9 UNK        -0.5274 
     30 CA        -71.6188   26.8597  -78.1944 C.3       8 UNK         0.0270 
     31 CB        -70.0860   26.8940  -78.0441 C.3       8 UNK        -0.1976 
     32 N         -72.1250   25.6675  -77.5108 N.am      8 UNK        -0.4313 
     33 C         -73.3064   25.0718  -77.7037 C.2       8 UNK         0.5041 
     34 O         -74.1610   25.5031  -78.4786 O.2       8 UNK        -0.5577 
     35 CA        -73.6035   23.8074  -76.8781 C.3       7 UNK         0.0284 
     36 CB        -72.9116   22.5700  -77.4819 C.3       7 UNK        -0.1958 
     37 N         -73.3216   23.9440  -75.4410 N.am      7 UNK        -0.4454 
     38 C         -72.1443   24.1183  -74.8184 C.2       7 UNK         0.5089 
     39 O         -71.0636   24.1543  -75.4083 O.2       7 UNK        -0.5125 
     40 CA        -72.1625   24.3522  -73.2952 C.3       6 UNK         0.0408 
     41 CB        -71.5452   25.7203  -72.9584 C.3       6 UNK        -0.1791 
     42 N         -73.5080   24.3017  -72.7222 N.am      6 UNK        -0.4762 
     43 C         -74.1500   23.1928  -72.3299 C.2       6 UNK         0.5007 
     44 O         -73.6585   22.0644  -72.3672 O.2       6 UNK        -0.5032 
     45 CA        -75.6085   23.3833  -71.8538 C.3       5 UNK         0.0783 
     46 C46       -75.7017   23.5240  -70.3133 C.3       11 UNK        -0.0857 
     47 S47       -74.8693   25.0045  -69.6333 S.3       11 UNK        -0.2512 
     48 C48       -76.2217   25.8447  -68.7568 C.3       11 UNK         0.0225 
     49 N         -76.3073   24.4684  -72.5608 N.am      5 UNK        -0.4615 
     50 C         -76.5615   24.4608  -73.8767 C.2       4 UNK         0.5053 
     51 O         -76.1973   23.5595  -74.6345 O.2       4 UNK        -0.5105 
     52 CA        -77.2652   25.6940  -74.4624 C.3       4 UNK         0.0263 
     53 CB        -76.2180   26.6989  -74.9654 C.3       4 UNK        -0.1981 
     54 N         -78.1438   25.3449  -75.5804 N.am      4 UNK        -0.4224 
     55 C         -79.2383   24.5782  -75.4994 C.2       3 UNK         0.4895 
     56 O         -79.6869   24.1331  -74.4415 O.2       3 UNK        -0.5091 
     57 CA        -79.9819   24.3251  -76.8236 C.3       3 UNK         0.0250 
     58 CB        -81.1066   23.2821  -76.6829 C.3       3 UNK        -0.1996 
     59 N         -80.5565   25.5812  -77.3018 N.am      3 UNK        -0.4254 
     60 C         -79.9288   26.4785  -78.0753 C.2       2 UNK         0.5004 
     61 O         -78.8306   26.2867  -78.5970 O.2       2 UNK        -0.5226 
     62 CA        -80.6172   27.8488  -78.2165 C.3       2 UNK         0.0269 
     63 CB        -81.7026   27.8125  -79.3042 C.3       2 UNK        -0.1926 
     64 N         -81.2037   28.2823  -76.9429 N.am      2 UNK        -0.4687 
     65 C         -80.4774   28.5943  -75.8573 C.2       1 UNK         0.5165 
     66 O         -79.2549   28.7351  -75.8755 O.2       1 UNK        -0.5079 
     67 H67       -84.7415   30.9534  -76.1699 H         1 UNK         0.0900 
     68 H68       -84.7609   31.4709  -74.4818 H         1 UNK         0.0900 
     69 H69       -85.0801   29.7847  -74.8915 H         1 UNK         0.0900 
     70 H70       -83.3268   28.4672  -74.4399 H         1 UNK         0.2959 
     71 H71       -80.7016   29.4552  -73.9220 H         1 UNK         0.1079 
     72 H72       -81.6953   26.5720  -74.3272 H         1 UNK         0.0837 
     73 H73       -80.1080   26.9988  -73.7528 H         1 UNK         0.0837 
     74 H74       -80.4568   25.3898  -71.8447 H         1 UNK         0.0685 
     75 H75       -81.0629   25.9563  -70.3088 H         1 UNK         0.0685 
     76 H76       -78.6942   25.1714  -69.7030 H         1 UNK         0.1434 
     77 H77       -75.7319   28.2649  -69.8903 H         1 UNK         0.1329 
     78 H78       -79.4196   28.7325  -71.9937 H         1 UNK         0.1335 
     79 H79       -77.9733   30.6631  -71.5373 H         1 UNK         0.0680 
     80 H80       -76.4181   30.4719  -70.7771 H         1 UNK         0.0680 
     81 H81       -74.3641   29.8488  -71.7779 H         1 UNK         0.1032 
     82 H82       -74.5936   28.3430  -72.6189 H         1 UNK         0.1032 
     83 H83       -73.6767   30.9893  -73.8455 H         1 UNK         0.0461 
     84 H84       -70.3070   29.0913  -74.0894 H         1 UNK         0.3453 
     85 H85       -71.5122   29.2437  -75.3461 H         1 UNK         0.3453 
     86 H86       -73.8606   28.3820  -75.2886 H         1 UNK         0.2984 
     87 H87       -75.5244   28.9569  -77.4834 H         1 UNK         0.0554 
     88 H88       -74.6891   29.7508  -79.7015 H         1 UNK         0.0847 
     89 H89       -73.4895   30.7607  -78.8952 H         1 UNK         0.0847 
     90 H90       -75.2053   31.0937  -78.6989 H         1 UNK         0.0847 
     91 H91       -74.0817   27.3531  -78.1008 H         1 UNK         0.3141 
     92 H92       -71.8437   26.7608  -79.2584 H         1 UNK         0.0743 
     93 H93       -69.6566   27.7395  -78.5833 H         1 UNK         0.0784 
     94 H94       -69.7863   26.9852  -76.9990 H         1 UNK         0.0784 
     95 H95       -69.6274   25.9904  -78.4463 H         1 UNK         0.0784 
     96 H96       -71.5112   25.2382  -76.8203 H         1 UNK         0.3213 
     97 H97       -74.6799   23.6406  -76.9480 H         1 UNK         0.0855 
     98 H98       -71.8249   22.6574  -77.4699 H         1 UNK         0.0814 
     99 H99       -73.2118   22.4271  -78.5208 H         1 UNK         0.0814 
    100 H100      -73.1808   21.6635  -76.9398 H         1 UNK         0.0814 
    101 H101      -74.1510   23.9089  -74.8586 H         1 UNK         0.3105 
    102 H102      -71.5465   23.5761  -72.8365 H         1 UNK         0.0547 
    103 H103      -72.0995   26.5372  -73.4208 H         1 UNK         0.0837 
    104 H104      -71.5253   25.8948  -71.8825 H         1 UNK         0.0837 
    105 H105      -70.5155   25.7864  -73.3126 H         1 UNK         0.0837 
    106 H106      -73.9932   25.1813  -72.6223 H         1 UNK         0.3020 
    107 H107      -76.1279   22.4593  -72.1203 H         1 UNK         0.1245 
    108 H108      -75.2665   22.6461  -69.8320 H         1 UNK         0.0781 
    109 H109      -76.7504   23.5230  -70.0139 H         1 UNK         0.0781 
    110 H110      -76.7989   25.1203  -68.1800 H         1 UNK         0.0836 
    111 H111      -75.7888   26.5299  -68.0263 H         1 UNK         0.0836 
    112 H112      -76.6091   25.2492  -71.9940 H         1 UNK         0.3022 
    113 H113      -77.8653   26.1637  -73.6808 H         1 UNK         0.0747 
    114 H114      -75.5116   26.9503  -74.1767 H         1 UNK         0.0793 
    115 H115      -76.6872   27.6287  -75.2890 H         1 UNK         0.0793 
    116 H116      -75.6441   26.3018  -75.8037 H         1 UNK         0.0793 
    117 H117      -77.8694   25.6810  -76.4940 H         1 UNK         0.3047 
    118 H118      -79.2581   23.9444  -77.5479 H         1 UNK         0.0822 
    119 H119      -80.7114   22.3295  -76.3275 H         1 UNK         0.0807 
    120 H120      -81.5929   23.0934  -77.6401 H         1 UNK         0.0807 
    121 H121      -81.8727   23.6018  -75.9753 H         1 UNK         0.0807 
    122 H122      -81.4460   25.8429  -76.9034 H         1 UNK         0.2946 
    123 H123      -79.8554   28.5748  -78.5107 H         1 UNK         0.1144 
    124 H124      -82.5017   27.1115  -79.0603 H         1 UNK         0.0793 
    125 H125      -81.2816   27.5062  -80.2629 H         1 UNK         0.0793 
    126 H126      -82.1510   28.7957  -79.4485 H         1 UNK         0.0793 
    127 H127      -82.2075   28.2244  -76.8488 H         1 UNK         0.2896 
@<TRIPOS>BOND
     1    1    2 1    
     2    1   67 1    
     3    1   68 1    
     4    1   69 1    
     5    2    3 2    
     6    2    4 am   BACKBONE|DICT|INTERRES
     7    4    5 1    
     8    4   70 1    
     9    5    6 1    
    10    5   65 1    
    11    5   71 1    
    12    6    7 1    
    13    6   72 1    
    14    6   73 1    
    15    7    8 1    
    16    8    9 1    
    17    8   74 1    
    18    8   75 1    
    19    9   10 ar   
    20    9   14 ar   
    21   10   11 ar   
    22   10   76 1    
    23   11   12 ar   
    24   11   48 1    
    25   12   13 ar   
    26   12   77 1    
    27   13   14 ar   
    28   13   15 1    
    29   14   78 1    
    30   15   16 1    
    31   15   79 1    
    32   15   80 1    
    33   16   17 1    
    34   17   18 1    
    35   17   81 1    
    36   17   82 1    
    37   18   19 1    
    38   18   22 1    
    39   18   83 1    
    40   19   20 am   BACKBONE|DICT|INTERRES
    41   19   21 2    
    42   20   84 1    
    43   20   85 1    
    44   22   23 am   BACKBONE|DICT|INTERRES
    45   22   86 1    
    46   23   24 2    
    47   23   25 1    
    48   25   26 1    
    49   25   27 1    
    50   25   87 1    
    51   26   88 1    
    52   26   89 1    
    53   26   90 1    
    54   27   28 am   BACKBONE|DICT|INTERRES
    55   27   91 1    
    56   28   29 2    
    57   28   30 1    
    58   30   31 1    
    59   30   32 1    
    60   30   92 1    
    61   31   93 1    
    62   31   94 1    
    63   31   95 1    
    64   32   33 am   BACKBONE|DICT|INTERRES
    65   32   96 1    
    66   33   34 2    
    67   33   35 1    
    68   35   36 1    
    69   35   37 1    
    70   35   97 1    
    71   36   98 1    
    72   36   99 1    
    73   36  100 1    
    74   37   38 am   BACKBONE|DICT|INTERRES
    75   37  101 1    
    76   38   39 2    
    77   38   40 1    
    78   40   41 1    
    79   40   42 1    
    80   40  102 1    
    81   41  103 1    
    82   41  104 1    
    83   41  105 1    
    84   42   43 am   BACKBONE|DICT|INTERRES
    85   42  106 1    
    86   43   44 2    
    87   43   45 1    
    88   45   46 1    
    89   45   49 1    
    90   45  107 1    
    91   46   47 1    
    92   46  108 1    
    93   46  109 1    
    94   47   48 1    
    95   48  110 1    
    96   48  111 1    
    97   49   50 am   BACKBONE|DICT|INTERRES
    98   49  112 1    
    99   50   51 2    
   100   50   52 1    
   101   52   53 1    
   102   52   54 1    
   103   52  113 1    
   104   53  114 1    
   105   53  115 1    
   106   53  116 1    
   107   54   55 am   BACKBONE|DICT|INTERRES
   108   54  117 1    
   109   55   56 2    
   110   55   57 1    
   111   57   58 1    
   112   57   59 1    
   113   57  118 1    
   114   58  119 1    
   115   58  120 1    
   116   58  121 1    
   117   59   60 am   BACKBONE|DICT|INTERRES
   118   59  122 1    
   119   60   61 2    
   120   60   62 1    
   121   62   63 1    
   122   62   64 1    
   123   62  123 1    
   124   63  124 1    
   125   63  125 1    
   126   63  126 1    
   127   64   65 am   BACKBONE|DICT|INTERRES
   128   64  127 1    
   129   65   66 2    
@<TRIPOS>SUBSTRUCTURE
     1 UNK         1 GROUP             0       ****    0 ROOT    
