@<TRIPOS>MOLECULE
3R135
127   129    1
SMALL
USER_CHARGES


@<TRIPOS>ATOM
      1 CA        -82.1926   23.2032  -71.1177 C.3       0 UNK        -0.1998 
      2 C         -80.9665   23.7809  -70.4140 C.2       0 UNK         0.4909 
      3 O         -80.4563   23.1542  -69.4872 O.2       0 UNK        -0.5240 
      4 N         -80.4652   24.9656  -70.7918 N.am      1 UNK        -0.4739 
      5 CA        -80.9100   25.8207  -71.9031 C.3       1 UNK         0.0864 
      6 C6        -80.2980   27.2439  -71.8124 C.3       11 UNK        -0.0881 
      7 S7        -80.5354   28.0140  -70.1704 S.3       11 UNK        -0.2682 
      8 C8        -80.7594   29.7745  -70.5821 C.3       11 UNK         0.0289 
      9 C9        -79.6033   30.3310  -71.4022 C.ar      11 UNK        -0.0687 
     10 C10       -79.8306   30.7986  -72.6993 C.ar      11 UNK        -0.0823 
     11 C11       -78.7757   31.2888  -73.4740 C.ar      11 UNK        -0.0830 
     12 C12       -77.4852   31.3183  -72.9375 C.ar      11 UNK        -0.1021 
     13 C13       -77.2431   30.8422  -71.6465 C.ar      11 UNK        -0.0753 
     14 C14       -78.3076   30.3646  -70.8762 C.ar      11 UNK        -0.0933 
     15 C15       -75.8239   30.8043  -71.1067 C.3       11 UNK         0.0166 
     16 S16       -75.1002   29.1580  -71.3685 S.3       11 UNK        -0.2615 
     17 C17       -73.3272   29.4910  -71.0780 C.3       11 UNK        -0.0865 
     18 CA        -72.3800   28.4634  -71.7588 C.3       10 UNK         0.0862 
     19 C         -72.4418   27.0527  -71.1123 C.2       10 UNK         0.5551 
     20 N         -72.0293   26.9314  -69.8574 N.am      10 UNK        -0.7319 
     21 O         -72.8515   26.0683  -71.7239 O.2       10 UNK        -0.5018 
     22 N         -72.5829   28.4064  -73.2107 N.am      10 UNK        -0.4509 
     23 C         -71.9414   29.1388  -74.1252 C.2       10 UNK         0.4899 
     24 O         -71.1016   29.9970  -73.8474 O.2       10 UNK        -0.4839 
     25 CA        -72.3033   28.8570  -75.5991 C.3       9 UNK         0.0222 
     26 CB        -71.3571   29.5497  -76.6022 C.3       9 UNK        -0.1966 
     27 N         -72.4193   27.4228  -75.8950 N.am      9 UNK        -0.4218 
     28 C         -71.4730   26.4823  -75.7520 C.2       9 UNK         0.5020 
     29 O         -70.3111   26.7130  -75.4132 O.2       9 UNK        -0.5274 
     30 CA        -71.8913   25.0257  -76.0179 C.3       8 UNK         0.0270 
     31 CB        -72.3338   24.3494  -74.7130 C.3       8 UNK        -0.1976 
     32 N         -72.9431   24.8869  -77.0328 N.am      8 UNK        -0.4313 
     33 C         -72.7044   24.9892  -78.3483 C.2       8 UNK         0.5041 
     34 O         -71.6096   25.2957  -78.8228 O.2       8 UNK        -0.5577 
     35 CA        -73.8632   24.6770  -79.3006 C.3       7 UNK         0.0284 
     36 CB        -74.2058   23.1761  -79.2860 C.3       7 UNK        -0.1958 
     37 N         -75.0526   25.4626  -78.9695 N.am      7 UNK        -0.4454 
     38 C         -75.5545   26.4245  -79.7541 C.2       7 UNK         0.5089 
     39 O         -75.0442   26.7802  -80.8176 O.2       7 UNK        -0.5125 
     40 CA        -76.8642   27.0951  -79.3116 C.3       6 UNK         0.0408 
     41 CB        -78.0755   26.3359  -79.8758 C.3       6 UNK        -0.1791 
     42 N         -77.0251   27.2548  -77.8660 N.am      6 UNK        -0.4762 
     43 C         -76.3226   28.1153  -77.1149 C.2       6 UNK         0.5007 
     44 O         -75.3116   28.7014  -77.5010 O.2       6 UNK        -0.5032 
     45 CA        -76.8746   28.3823  -75.7020 C.3       5 UNK         0.0783 
     46 C46       -78.2258   29.1426  -75.7634 C.3       11 UNK        -0.0857 
     47 S47       -77.9792   30.9162  -76.1324 S.3       11 UNK        -0.2512 
     48 C48       -79.0357   31.7523  -74.9016 C.3       11 UNK         0.0225 
     49 N         -76.9903   27.1230  -74.9708 N.am      5 UNK        -0.4615 
     50 C         -75.9685   26.5255  -74.3438 C.2       4 UNK         0.5053 
     51 O         -74.8519   27.0243  -74.2355 O.2       4 UNK        -0.5105 
     52 CA        -76.2070   25.1016  -73.8109 C.3       4 UNK         0.0263 
     53 CB        -76.7099   25.1304  -72.3612 C.3       4 UNK        -0.1981 
     54 N         -77.1207   24.3341  -74.6610 N.am      4 UNK        -0.4224 
     55 C         -76.8429   24.0144  -75.9352 C.2       3 UNK         0.4895 
     56 O         -75.7598   24.2549  -76.4731 O.2       3 UNK        -0.5091 
     57 CA        -77.9592   23.3737  -76.7783 C.3       3 UNK         0.0250 
     58 CB        -77.7967   21.8465  -76.8033 C.3       3 UNK        -0.1996 
     59 N         -79.3190   23.7126  -76.3459 N.am      3 UNK        -0.4254 
     60 C         -79.8374   24.9474  -76.2620 C.2       2 UNK         0.5004 
     61 O         -79.2203   25.9699  -76.5639 O.2       2 UNK        -0.5226 
     62 CA        -81.2663   25.0748  -75.6958 C.3       2 UNK         0.0269 
     63 CB        -82.0756   23.7588  -75.7531 C.3       2 UNK        -0.1926 
     64 N         -81.2935   25.6157  -74.3268 N.am      2 UNK        -0.4687 
     65 C         -80.5982   25.1675  -73.2696 C.2       1 UNK         0.5165 
     66 O         -79.7514   24.2720  -73.3404 O.2       1 UNK        -0.5079 
     67 H67       -82.6062   22.3779  -70.5391 H         1 UNK         0.0900 
     68 H68       -81.9258   22.8156  -72.1004 H         1 UNK         0.0900 
     69 H69       -82.9808   23.9457  -71.2307 H         1 UNK         0.0900 
     70 H70       -79.6617   25.3181  -70.2934 H         1 UNK         0.2959 
     71 H71       -81.9932   25.9271  -71.8274 H         1 UNK         0.1079 
     72 H72       -79.2280   27.2345  -72.0213 H         1 UNK         0.0837 
     73 H73       -80.7440   27.8897  -72.5706 H         1 UNK         0.0837 
     74 H74       -81.7075   29.8949  -71.1087 H         1 UNK         0.0685 
     75 H75       -80.8475   30.3453  -69.6568 H         1 UNK         0.0685 
     76 H76       -80.8297   30.7665  -73.1122 H         1 UNK         0.1434 
     77 H77       -76.6630   31.6796  -73.5403 H         1 UNK         0.1329 
     78 H78       -78.1231   29.9863  -69.8800 H         1 UNK         0.1335 
     79 H79       -75.2151   31.5611  -71.6036 H         1 UNK         0.0680 
     80 H80       -75.8147   31.0430  -70.0424 H         1 UNK         0.0680 
     81 H81       -73.1496   29.5343  -70.0024 H         1 UNK         0.1032 
     82 H82       -73.0897   30.4872  -71.4536 H         1 UNK         0.1032 
     83 H83       -71.3556   28.7995  -71.5874 H         1 UNK         0.0461 
     84 H84       -72.0624   26.0237  -69.4208 H         1 UNK         0.3453 
     85 H85       -71.6795   27.7226  -69.3405 H         1 UNK         0.3453 
     86 H86       -73.2842   27.7329  -73.5165 H         1 UNK         0.2984 
     87 H87       -73.2992   29.2765  -75.7452 H         1 UNK         0.0554 
     88 H88       -71.6616   29.3557  -77.6306 H         1 UNK         0.0847 
     89 H89       -70.3267   29.2128  -76.4873 H         1 UNK         0.0847 
     90 H90       -71.3632   30.6312  -76.4620 H         1 UNK         0.0847 
     91 H91       -73.3535   27.1084  -76.1197 H         1 UNK         0.3141 
     92 H92       -71.0077   24.4929  -76.3769 H         1 UNK         0.0743 
     93 H93       -73.1191   24.9172  -74.2191 H         1 UNK         0.0784 
     94 H94       -72.6964   23.3355  -74.8823 H         1 UNK         0.0784 
     95 H95       -71.5021   24.2866  -74.0100 H         1 UNK         0.0784 
     96 H96       -73.8739   24.6221  -76.7190 H         1 UNK         0.3213 
     97 H97       -73.5175   24.9143  -80.3092 H         1 UNK         0.0855 
     98 H98       -74.5412   22.8354  -78.3066 H         1 UNK         0.0814 
     99 H99       -73.3349   22.5774  -79.5557 H         1 UNK         0.0814 
    100 H100      -74.9917   22.9449  -80.0051 H         1 UNK         0.0814 
    101 H101      -75.5126   25.2415  -78.0912 H         1 UNK         0.3105 
    102 H102      -76.8732   28.0963  -79.7480 H         1 UNK         0.0547 
    103 H103      -78.0121   26.2521  -80.9617 H         1 UNK         0.0837 
    104 H104      -78.1437   25.3249  -79.4761 H         1 UNK         0.0837 
    105 H105      -79.0090   26.8498  -79.6458 H         1 UNK         0.0837 
    106 H106      -77.8338   26.8001  -77.4452 H         1 UNK         0.3020 
    107 H107      -76.1540   29.0130  -75.1743 H         1 UNK         0.1245 
    108 H108      -78.7435   29.0372  -74.8104 H         1 UNK         0.0781 
    109 H109      -78.9060   28.7175  -76.5037 H         1 UNK         0.0781 
    110 H110      -80.0788   31.5917  -75.1785 H         1 UNK         0.0836 
    111 H111      -78.8649   32.8278  -74.9617 H         1 UNK         0.0836 
    112 H112      -77.8525   26.6098  -75.1046 H         1 UNK         0.3022 
    113 H113      -75.2519   24.5778  -73.8114 H         1 UNK         0.0747 
    114 H114      -76.8291   24.1236  -71.9612 H         1 UNK         0.0793 
    115 H115      -76.0025   25.6564  -71.7177 H         1 UNK         0.0793 
    116 H116      -77.6668   25.6391  -72.2759 H         1 UNK         0.0793 
    117 H117      -78.0422   24.1291  -74.2824 H         1 UNK         0.3047 
    118 H118      -77.8395   23.7420  -77.7978 H         1 UNK         0.0822 
    119 H119      -78.5138   21.3813  -77.4799 H         1 UNK         0.0807 
    120 H120      -77.9344   21.4096  -75.8133 H         1 UNK         0.0807 
    121 H121      -76.8004   21.5653  -77.1483 H         1 UNK         0.0807 
    122 H122      -79.8937   22.9431  -76.0344 H         1 UNK         0.2946 
    123 H123      -81.7725   25.8013  -76.3340 H         1 UNK         0.1144 
    124 H124      -82.0833   23.3414  -76.7612 H         1 UNK         0.0793 
    125 H125      -83.1156   23.9311  -75.4755 H         1 UNK         0.0793 
    126 H126      -81.6818   22.9979  -75.0781 H         1 UNK         0.0793 
    127 H127      -81.9357   26.3835  -74.1857 H         1 UNK         0.2896 
@<TRIPOS>BOND
     1    1    2 1    
     2    1   67 1    
     3    1   68 1    
     4    1   69 1    
     5    2    3 2    
     6    2    4 am   BACKBONE|DICT|INTERRES
     7    4    5 1    
     8    4   70 1    
     9    5    6 1    
    10    5   65 1    
    11    5   71 1    
    12    6    7 1    
    13    6   72 1    
    14    6   73 1    
    15    7    8 1    
    16    8    9 1    
    17    8   74 1    
    18    8   75 1    
    19    9   10 ar   
    20    9   14 ar   
    21   10   11 ar   
    22   10   76 1    
    23   11   12 ar   
    24   11   48 1    
    25   12   13 ar   
    26   12   77 1    
    27   13   14 ar   
    28   13   15 1    
    29   14   78 1    
    30   15   16 1    
    31   15   79 1    
    32   15   80 1    
    33   16   17 1    
    34   17   18 1    
    35   17   81 1    
    36   17   82 1    
    37   18   19 1    
    38   18   22 1    
    39   18   83 1    
    40   19   20 am   BACKBONE|DICT|INTERRES
    41   19   21 2    
    42   20   84 1    
    43   20   85 1    
    44   22   23 am   BACKBONE|DICT|INTERRES
    45   22   86 1    
    46   23   24 2    
    47   23   25 1    
    48   25   26 1    
    49   25   27 1    
    50   25   87 1    
    51   26   88 1    
    52   26   89 1    
    53   26   90 1    
    54   27   28 am   BACKBONE|DICT|INTERRES
    55   27   91 1    
    56   28   29 2    
    57   28   30 1    
    58   30   31 1    
    59   30   32 1    
    60   30   92 1    
    61   31   93 1    
    62   31   94 1    
    63   31   95 1    
    64   32   33 am   BACKBONE|DICT|INTERRES
    65   32   96 1    
    66   33   34 2    
    67   33   35 1    
    68   35   36 1    
    69   35   37 1    
    70   35   97 1    
    71   36   98 1    
    72   36   99 1    
    73   36  100 1    
    74   37   38 am   BACKBONE|DICT|INTERRES
    75   37  101 1    
    76   38   39 2    
    77   38   40 1    
    78   40   41 1    
    79   40   42 1    
    80   40  102 1    
    81   41  103 1    
    82   41  104 1    
    83   41  105 1    
    84   42   43 am   BACKBONE|DICT|INTERRES
    85   42  106 1    
    86   43   44 2    
    87   43   45 1    
    88   45   46 1    
    89   45   49 1    
    90   45  107 1    
    91   46   47 1    
    92   46  108 1    
    93   46  109 1    
    94   47   48 1    
    95   48  110 1    
    96   48  111 1    
    97   49   50 am   BACKBONE|DICT|INTERRES
    98   49  112 1    
    99   50   51 2    
   100   50   52 1    
   101   52   53 1    
   102   52   54 1    
   103   52  113 1    
   104   53  114 1    
   105   53  115 1    
   106   53  116 1    
   107   54   55 am   BACKBONE|DICT|INTERRES
   108   54  117 1    
   109   55   56 2    
   110   55   57 1    
   111   57   58 1    
   112   57   59 1    
   113   57  118 1    
   114   58  119 1    
   115   58  120 1    
   116   58  121 1    
   117   59   60 am   BACKBONE|DICT|INTERRES
   118   59  122 1    
   119   60   61 2    
   120   60   62 1    
   121   62   63 1    
   122   62   64 1    
   123   62  123 1    
   124   63  124 1    
   125   63  125 1    
   126   63  126 1    
   127   64   65 am   BACKBONE|DICT|INTERRES
   128   64  127 1    
   129   65   66 2    
@<TRIPOS>SUBSTRUCTURE
     1 UNK         1 GROUP             0       ****    0 ROOT    
