@<TRIPOS>MOLECULE
3R135
127   129    1
SMALL
USER_CHARGES


@<TRIPOS>ATOM
      1 CA        -85.0653   23.8554  -71.1777 C.3       0 UNK        -0.1998 
      2 C         -84.6731   24.9756  -72.1297 C.2       0 UNK         0.4909 
      3 O         -85.4893   25.3944  -72.9520 O.2       0 UNK        -0.5240 
      4 N         -83.4344   25.4697  -72.0171 N.am      1 UNK        -0.4739 
      5 CA        -82.8540   26.4906  -72.8951 C.3       1 UNK         0.0864 
      6 C6        -81.7246   27.2830  -72.1864 C.3       11 UNK        -0.0881 
      7 S7        -80.3767   26.2537  -71.5059 S.3       11 UNK        -0.2682 
      8 C8        -79.5523   27.4475  -70.4013 C.3       11 UNK         0.0289 
      9 C9        -78.4569   28.2249  -71.1191 C.ar      11 UNK        -0.0687 
     10 C10       -78.7779   29.2703  -71.9908 C.ar      11 UNK        -0.0823 
     11 C11       -77.7741   29.9698  -72.6684 C.ar      11 UNK        -0.0830 
     12 C12       -76.4357   29.6371  -72.4392 C.ar      11 UNK        -0.1021 
     13 C13       -76.1005   28.6022  -71.5608 C.ar      11 UNK        -0.0753 
     14 C14       -77.1143   27.9011  -70.9034 C.ar      11 UNK        -0.0933 
     15 C15       -74.6437   28.2316  -71.3427 C.3       11 UNK         0.0166 
     16 S16       -73.7625   29.5441  -70.4403 S.3       11 UNK        -0.2615 
     17 C17       -72.0303   28.9926  -70.5939 C.3       11 UNK        -0.0865 
     18 CA        -71.3055   29.6672  -71.7876 C.3       10 UNK         0.0862 
     19 C         -69.7871   29.3542  -71.7605 C.2       10 UNK         0.5551 
     20 N         -68.9521   30.3334  -71.4424 N.am      10 UNK        -0.7319 
     21 O         -69.3696   28.2188  -71.9788 O.2       10 UNK        -0.5018 
     22 N         -71.9039   29.2555  -73.0611 N.am      10 UNK        -0.4509 
     23 C         -71.7679   29.8837  -74.2334 C.2       10 UNK         0.4899 
     24 O         -71.1665   30.9494  -74.3762 O.2       10 UNK        -0.4839 
     25 CA        -72.4396   29.1970  -75.4415 C.3       9 UNK         0.0222 
     26 CB        -71.9003   29.7016  -76.7971 C.3       9 UNK        -0.1966 
     27 N         -72.3911   27.7286  -75.3643 N.am      9 UNK        -0.4218 
     28 C         -71.2864   26.9654  -75.3304 C.2       9 UNK         0.5020 
     29 O         -70.1378   27.3964  -75.4352 O.2       9 UNK        -0.5274 
     30 CA        -71.5008   25.4617  -75.1315 C.3       8 UNK         0.0270 
     31 CB        -71.8157   25.1449  -73.6581 C.3       8 UNK        -0.1976 
     32 N         -72.5707   24.9556  -75.9938 N.am      8 UNK        -0.4313 
     33 C         -72.3562   24.3910  -77.1891 C.2       8 UNK         0.5041 
     34 O         -71.2429   24.2724  -77.7038 O.2       8 UNK        -0.5577 
     35 CA        -73.5785   23.8218  -77.9221 C.3       7 UNK         0.0284 
     36 CB        -74.0832   22.5475  -77.2238 C.3       7 UNK        -0.1958 
     37 N         -74.6763   24.7793  -78.0679 N.am      7 UNK        -0.4454 
     38 C         -74.6822   25.7891  -78.9498 C.2       7 UNK         0.5089 
     39 O         -73.7200   26.0886  -79.6576 O.2       7 UNK        -0.5125 
     40 CA        -75.9966   26.5745  -79.0998 C.3       6 UNK         0.0408 
     41 CB        -77.0455   25.7452  -79.8588 C.3       6 UNK        -0.1791 
     42 N         -76.5472   26.9920  -77.8131 N.am      6 UNK        -0.4762 
     43 C         -76.0619   27.9959  -77.0706 C.2       6 UNK         0.5007 
     44 O         -75.1397   28.7259  -77.4304 O.2       6 UNK        -0.5032 
     45 CA        -76.6911   28.1938  -75.6766 C.3       5 UNK         0.0783 
     46 C46       -77.9285   29.1313  -75.7151 C.3       11 UNK        -0.0857 
     47 S47       -77.4587   30.8503  -75.3204 S.3       11 UNK        -0.2512 
     48 C48       -78.1468   31.0835  -73.6430 C.3       11 UNK         0.0225 
     49 N         -76.9865   26.9144  -75.0304 N.am      5 UNK        -0.4615 
     50 C         -76.0535   26.0491  -74.6144 C.2       4 UNK         0.5053 
     51 O         -74.8416   26.2551  -74.7033 O.2       4 UNK        -0.5105 
     52 CA        -76.5520   24.7117  -74.0431 C.3       4 UNK         0.0263 
     53 CB        -76.7295   24.8020  -72.5217 C.3       4 UNK        -0.1981 
     54 N         -77.8026   24.2558  -74.6587 N.am      4 UNK        -0.4224 
     55 C         -77.8999   23.8544  -75.9334 C.2       3 UNK         0.4895 
     56 O         -76.9528   23.8313  -76.7174 O.2       3 UNK        -0.5091 
     57 CA        -79.2935   23.4530  -76.4324 C.3       3 UNK         0.0250 
     58 CB        -79.7544   22.1351  -75.7887 C.3       3 UNK        -0.1996 
     59 N         -80.3133   24.4846  -76.2317 N.am      3 UNK        -0.4254 
     60 C         -80.2756   25.7384  -76.7000 C.2       2 UNK         0.5004 
     61 O         -79.2950   26.2367  -77.2513 O.2       2 UNK        -0.5226 
     62 CA        -81.5553   26.5797  -76.5501 C.3       2 UNK         0.0269 
     63 CB        -82.6955   26.0194  -77.4238 C.3       2 UNK        -0.1926 
     64 N         -82.0027   26.7996  -75.1673 N.am      2 UNK        -0.4687 
     65 C         -82.4067   25.9034  -74.2532 C.2       1 UNK         0.5165 
     66 O         -82.4316   24.6842  -74.4477 O.2       1 UNK        -0.5079 
     67 H67       -85.9276   24.1533  -70.5818 H         1 UNK         0.0900 
     68 H68       -85.3317   22.9614  -71.7409 H         1 UNK         0.0900 
     69 H69       -84.2548   23.5977  -70.4961 H         1 UNK         0.0900 
     70 H70       -82.7921   25.0688  -71.3481 H         1 UNK         0.2959 
     71 H71       -83.6452   27.2068  -73.1300 H         1 UNK         0.1079 
     72 H72       -81.2966   28.0276  -72.8570 H         1 UNK         0.0837 
     73 H73       -82.1651   27.8511  -71.3656 H         1 UNK         0.0837 
     74 H74       -80.2797   28.1373  -69.9714 H         1 UNK         0.0685 
     75 H75       -79.1300   26.8973  -69.5592 H         1 UNK         0.0685 
     76 H76       -79.8125   29.5385  -72.1452 H         1 UNK         0.1434 
     77 H77       -75.6522   30.1793  -72.9509 H         1 UNK         0.1329 
     78 H78       -76.8586   27.0964  -70.2278 H         1 UNK         0.1335 
     79 H79       -74.5570   27.2958  -70.7883 H         1 UNK         0.0680 
     80 H80       -74.1832   28.0577  -72.3146 H         1 UNK         0.0680 
     81 H81       -71.5283   29.2458  -69.6579 H         1 UNK         0.1032 
     82 H82       -71.9885   27.9041  -70.6697 H         1 UNK         0.1032 
     83 H83       -71.4365   30.7475  -71.6923 H         1 UNK         0.0461 
     84 H84       -67.9632   30.1418  -71.4036 H         1 UNK         0.3453 
     85 H85       -69.2895   31.2654  -71.2569 H         1 UNK         0.3453 
     86 H86       -72.3726   28.3642  -73.0573 H         1 UNK         0.2984 
     87 H87       -73.4945   29.4673  -75.3871 H         1 UNK         0.0554 
     88 H88       -72.0823   30.7702  -76.9155 H         1 UNK         0.0847 
     89 H89       -72.3903   29.1973  -77.6300 H         1 UNK         0.0847 
     90 H90       -70.8260   29.5425  -76.8930 H         1 UNK         0.0847 
     91 H91       -73.2876   27.2615  -75.2505 H         1 UNK         0.3141 
     92 H92       -70.5619   24.9592  -75.3748 H         1 UNK         0.0743 
     93 H93       -72.7367   25.6173  -73.3175 H         1 UNK         0.0784 
     94 H94       -71.9141   24.0710  -73.4987 H         1 UNK         0.0784 
     95 H95       -71.0132   25.4959  -73.0074 H         1 UNK         0.0784 
     96 H96       -73.5214   25.0824  -75.6631 H         1 UNK         0.3213 
     97 H97       -73.2522   23.5354  -78.9247 H         1 UNK         0.0855 
     98 H98       -74.4522   22.7524  -76.2183 H         1 UNK         0.0814 
     99 H99       -73.2856   21.8088  -77.1344 H         1 UNK         0.0814 
    100 H100      -74.8930   22.0827  -77.7866 H         1 UNK         0.0814 
    101 H101      -75.5301   24.5742  -77.5496 H         1 UNK         0.3105 
    102 H102      -75.7877   27.4686  -79.6914 H         1 UNK         0.0547 
    103 H103      -76.6640   25.4257  -80.8294 H         1 UNK         0.0837 
    104 H104      -77.3317   24.8485  -79.3077 H         1 UNK         0.0837 
    105 H105      -77.9508   26.3248  -80.0401 H         1 UNK         0.0837 
    106 H106      -77.3588   26.4829  -77.4725 H         1 UNK         0.3020 
    107 H107      -75.9175   28.6592  -75.0623 H         1 UNK         0.1245 
    108 H108      -78.6878   28.8065  -75.0024 H         1 UNK         0.0781 
    109 H109      -78.4280   29.1115  -76.6861 H         1 UNK         0.0781 
    110 H110      -79.2307   31.1758  -73.7275 H         1 UNK         0.0836 
    111 H111      -77.7902   32.0345  -73.2455 H         1 UNK         0.0836 
    112 H112      -77.9578   26.6530  -74.9582 H         1 UNK         0.3022 
    113 H113      -75.7817   23.9654  -74.2490 H         1 UNK         0.0747 
    114 H114      -76.9539   23.8265  -72.0900 H         1 UNK         0.0793 
    115 H115      -75.8209   25.1679  -72.0412 H         1 UNK         0.0793 
    116 H116      -77.5393   25.4798  -72.2541 H         1 UNK         0.0793 
    117 H117      -78.6323   24.2579  -74.0827 H         1 UNK         0.3047 
    118 H118      -79.2127   23.2901  -77.5091 H         1 UNK         0.0822 
    119 H119      -80.6779   21.7761  -76.2436 H         1 UNK         0.0807 
    120 H120      -79.9318   22.2444  -74.7182 H         1 UNK         0.0807 
    121 H121      -79.0056   21.3523  -75.9191 H         1 UNK         0.0807 
    122 H122      -81.1474   24.2195  -75.7129 H         1 UNK         0.2946 
    123 H123      -81.3109   27.5690  -76.9420 H         1 UNK         0.1144 
    124 H124      -83.5587   26.6850  -77.4200 H         1 UNK         0.0793 
    125 H125      -83.0306   25.0381  -77.0867 H         1 UNK         0.0793 
    126 H126      -82.3750   25.9131  -78.4612 H         1 UNK         0.0793 
    127 H127      -82.0081   27.7712  -74.8892 H         1 UNK         0.2896 
@<TRIPOS>BOND
     1    1    2 1    
     2    1   67 1    
     3    1   68 1    
     4    1   69 1    
     5    2    3 2    
     6    2    4 am   BACKBONE|DICT|INTERRES
     7    4    5 1    
     8    4   70 1    
     9    5    6 1    
    10    5   65 1    
    11    5   71 1    
    12    6    7 1    
    13    6   72 1    
    14    6   73 1    
    15    7    8 1    
    16    8    9 1    
    17    8   74 1    
    18    8   75 1    
    19    9   10 ar   
    20    9   14 ar   
    21   10   11 ar   
    22   10   76 1    
    23   11   12 ar   
    24   11   48 1    
    25   12   13 ar   
    26   12   77 1    
    27   13   14 ar   
    28   13   15 1    
    29   14   78 1    
    30   15   16 1    
    31   15   79 1    
    32   15   80 1    
    33   16   17 1    
    34   17   18 1    
    35   17   81 1    
    36   17   82 1    
    37   18   19 1    
    38   18   22 1    
    39   18   83 1    
    40   19   20 am   BACKBONE|DICT|INTERRES
    41   19   21 2    
    42   20   84 1    
    43   20   85 1    
    44   22   23 am   BACKBONE|DICT|INTERRES
    45   22   86 1    
    46   23   24 2    
    47   23   25 1    
    48   25   26 1    
    49   25   27 1    
    50   25   87 1    
    51   26   88 1    
    52   26   89 1    
    53   26   90 1    
    54   27   28 am   BACKBONE|DICT|INTERRES
    55   27   91 1    
    56   28   29 2    
    57   28   30 1    
    58   30   31 1    
    59   30   32 1    
    60   30   92 1    
    61   31   93 1    
    62   31   94 1    
    63   31   95 1    
    64   32   33 am   BACKBONE|DICT|INTERRES
    65   32   96 1    
    66   33   34 2    
    67   33   35 1    
    68   35   36 1    
    69   35   37 1    
    70   35   97 1    
    71   36   98 1    
    72   36   99 1    
    73   36  100 1    
    74   37   38 am   BACKBONE|DICT|INTERRES
    75   37  101 1    
    76   38   39 2    
    77   38   40 1    
    78   40   41 1    
    79   40   42 1    
    80   40  102 1    
    81   41  103 1    
    82   41  104 1    
    83   41  105 1    
    84   42   43 am   BACKBONE|DICT|INTERRES
    85   42  106 1    
    86   43   44 2    
    87   43   45 1    
    88   45   46 1    
    89   45   49 1    
    90   45  107 1    
    91   46   47 1    
    92   46  108 1    
    93   46  109 1    
    94   47   48 1    
    95   48  110 1    
    96   48  111 1    
    97   49   50 am   BACKBONE|DICT|INTERRES
    98   49  112 1    
    99   50   51 2    
   100   50   52 1    
   101   52   53 1    
   102   52   54 1    
   103   52  113 1    
   104   53  114 1    
   105   53  115 1    
   106   53  116 1    
   107   54   55 am   BACKBONE|DICT|INTERRES
   108   54  117 1    
   109   55   56 2    
   110   55   57 1    
   111   57   58 1    
   112   57   59 1    
   113   57  118 1    
   114   58  119 1    
   115   58  120 1    
   116   58  121 1    
   117   59   60 am   BACKBONE|DICT|INTERRES
   118   59  122 1    
   119   60   61 2    
   120   60   62 1    
   121   62   63 1    
   122   62   64 1    
   123   62  123 1    
   124   63  124 1    
   125   63  125 1    
   126   63  126 1    
   127   64   65 am   BACKBONE|DICT|INTERRES
   128   64  127 1    
   129   65   66 2    
@<TRIPOS>SUBSTRUCTURE
     1 UNK         1 GROUP             0       ****    0 ROOT    
