@<TRIPOS>MOLECULE
3R135
127   129    1
SMALL
USER_CHARGES


@<TRIPOS>ATOM
      1 CA        -82.8076   23.6145  -69.2559 C.3       0 UNK        -0.1998 
      2 C         -82.7259   24.3801  -70.5678 C.2       0 UNK         0.4909 
      3 O         -83.7457   24.5676  -71.2320 O.2       0 UNK        -0.5240 
      4 N         -81.5194   24.8237  -70.9461 N.am      1 UNK        -0.4739 
      5 CA        -81.2508   25.5865  -72.1748 C.3       1 UNK         0.0864 
      6 C6        -79.8835   26.3126  -72.1112 C.3       11 UNK        -0.0881 
      7 S7        -79.8227   27.5078  -70.7332 S.3       11 UNK        -0.2682 
      8 C8        -79.8997   29.1167  -71.5994 C.3       11 UNK         0.0289 
      9 C9        -78.5670   29.5627  -72.1996 C.ar      11 UNK        -0.0687 
     10 C10       -78.5357   30.1953  -73.4484 C.ar      11 UNK        -0.0823 
     11 C11       -77.3290   30.6261  -74.0151 C.ar      11 UNK        -0.0830 
     12 C12       -76.1435   30.4277  -73.2943 C.ar      11 UNK        -0.1021 
     13 C13       -76.1591   29.8221  -72.0344 C.ar      11 UNK        -0.0753 
     14 C14       -77.3720   29.3956  -71.4928 C.ar      11 UNK        -0.0933 
     15 C15       -74.8596   29.5927  -71.2775 C.3       11 UNK         0.0166 
     16 S16       -73.9934   31.1528  -70.9151 S.3       11 UNK        -0.2615 
     17 C17       -72.3275   30.5405  -70.4831 C.3       11 UNK        -0.0865 
     18 CA        -71.2916   30.7723  -71.6245 C.3       10 UNK         0.0862 
     19 C         -69.8198   30.5272  -71.1663 C.2       10 UNK         0.5551 
     20 N         -68.9208   30.0972  -72.0434 N.am      10 UNK        -0.7319 
     21 O         -69.4757   30.7610  -70.0100 O.2       10 UNK        -0.5018 
     22 N         -71.6710   30.1075  -72.8877 N.am      10 UNK        -0.4509 
     23 C         -71.7511   28.7858  -73.0891 C.2       10 UNK         0.4899 
     24 O         -71.4551   27.9360  -72.2458 O.2       10 UNK        -0.4839 
     25 CA        -72.2428   28.3488  -74.4765 C.3       9 UNK         0.0222 
     26 CB        -71.0914   28.3608  -75.4948 C.3       9 UNK        -0.1966 
     27 N         -72.8069   27.0010  -74.4173 N.am      9 UNK        -0.4218 
     28 C         -74.0893   26.7097  -74.1763 C.2       9 UNK         0.5020 
     29 O         -74.9857   27.5493  -74.1070 O.2       9 UNK        -0.5274 
     30 CA        -74.4354   25.2167  -74.0745 C.3       8 UNK         0.0270 
     31 CB        -75.8155   24.9736  -73.4321 C.3       8 UNK        -0.1976 
     32 N         -74.4137   24.6349  -75.4149 N.am      8 UNK        -0.4313 
     33 C         -73.3017   24.2384  -76.0507 C.2       8 UNK         0.5041 
     34 O         -72.1893   24.2239  -75.5207 O.2       8 UNK        -0.5577 
     35 CA        -73.4274   23.8429  -77.5265 C.3       7 UNK         0.0284 
     36 CB        -73.7957   22.3582  -77.6809 C.3       7 UNK        -0.1958 
     37 N         -74.3936   24.6956  -78.2223 N.am      7 UNK        -0.4454 
     38 C         -74.2379   25.1625  -79.4666 C.2       7 UNK         0.5089 
     39 O         -73.3163   24.8392  -80.2171 O.2       7 UNK        -0.5125 
     40 CA        -75.2784   26.1867  -79.9493 C.3       6 UNK         0.0408 
     41 CB        -76.5321   25.4716  -80.4777 C.3       6 UNK        -0.1791 
     42 N         -75.6680   27.1350  -78.9037 N.am      6 UNK        -0.4762 
     43 C         -74.8802   28.0599  -78.3375 C.2       6 UNK         0.5007 
     44 O         -73.7152   28.2523  -78.6870 O.2       6 UNK        -0.5032 
     45 CA        -75.4523   28.8986  -77.1682 C.3       5 UNK         0.0783 
     46 C46       -75.8168   30.3448  -77.5991 C.3       11 UNK        -0.0857 
     47 S47       -75.7415   31.5298  -76.2107 S.3       11 UNK        -0.2512 
     48 C48       -77.3612   31.3391  -75.3744 C.3       11 UNK         0.0225 
     49 N         -76.5273   28.2378  -76.4150 N.am      5 UNK        -0.4615 
     50 C         -77.7644   27.9412  -76.8325 C.2       4 UNK         0.5053 
     51 O         -78.1791   28.1511  -77.9734 O.2       4 UNK        -0.5105 
     52 CA        -78.6882   27.2540  -75.8186 C.3       4 UNK         0.0263 
     53 CB        -80.0461   27.9831  -75.7842 C.3       4 UNK        -0.1981 
     54 N         -78.9344   25.8360  -76.1100 N.am      4 UNK        -0.4224 
     55 C         -78.0603   24.9018  -76.5215 C.2       3 UNK         0.4895 
     56 O         -76.8561   25.0956  -76.7108 O.2       3 UNK        -0.5091 
     57 CA        -78.6368   23.4930  -76.7169 C.3       3 UNK         0.0250 
     58 CB        -77.5554   22.4159  -76.9141 C.3       3 UNK        -0.1996 
     59 N         -79.4793   23.1448  -75.5739 N.am      3 UNK        -0.4254 
     60 C         -80.6691   22.5392  -75.6532 C.2       2 UNK         0.5004 
     61 O         -81.1613   22.1252  -76.7037 O.2       2 UNK        -0.5226 
     62 CA        -81.4596   22.3791  -74.3417 C.3       2 UNK         0.0269 
     63 CB        -81.2204   20.9844  -73.7403 C.3       2 UNK        -0.1926 
     64 N         -81.1946   23.3957  -73.3132 N.am      2 UNK        -0.4687 
     65 C         -81.3720   24.7204  -73.4490 C.2       1 UNK         0.5165 
     66 O         -81.6381   25.2630  -74.5217 O.2       1 UNK        -0.5079 
     67 H67       -83.4847   24.1204  -68.5683 H         1 UNK         0.0900 
     68 H68       -83.1886   22.6088  -69.4316 H         1 UNK         0.0900 
     69 H69       -81.8349   23.5292  -68.7719 H         1 UNK         0.0900 
     70 H70       -80.7217   24.6688  -70.3456 H         1 UNK         0.2959 
     71 H71       -82.0264   26.3513  -72.2613 H         1 UNK         0.1079 
     72 H72       -79.0701   25.5959  -71.9835 H         1 UNK         0.0837 
     73 H73       -79.6740   26.8397  -73.0402 H         1 UNK         0.0837 
     74 H74       -80.2197   29.8758  -70.8848 H         1 UNK         0.0685 
     75 H75       -80.6755   29.0694  -72.3655 H         1 UNK         0.0685 
     76 H76       -79.4627   30.3694  -73.9757 H         1 UNK         0.1434 
     77 H77       -75.1930   30.7470  -73.6953 H         1 UNK         0.1329 
     78 H78       -77.3845   28.9271  -70.5187 H         1 UNK         0.1335 
     79 H79       -74.2281   28.9416  -71.8777 H         1 UNK         0.0680 
     80 H80       -75.0392   29.0645  -70.3400 H         1 UNK         0.0680 
     81 H81       -72.0236   31.0721  -69.5796 H         1 UNK         0.1032 
     82 H82       -72.3709   29.4864  -70.2044 H         1 UNK         0.1032 
     83 H83       -71.3149   31.8383  -71.8541 H         1 UNK         0.0461 
     84 H84       -67.9692   29.9511  -71.7454 H         1 UNK         0.3453 
     85 H85       -69.1877   29.9106  -72.9962 H         1 UNK         0.3453 
     86 H86       -71.9133   30.7301  -73.6450 H         1 UNK         0.2984 
     87 H87       -73.0078   29.0540  -74.8062 H         1 UNK         0.0554 
     88 H88       -71.4382   28.0627  -76.4849 H         1 UNK         0.0847 
     89 H89       -70.2866   27.6841  -75.2042 H         1 UNK         0.0847 
     90 H90       -70.6609   29.3581  -75.5923 H         1 UNK         0.0847 
     91 H91       -72.1538   26.2294  -74.4843 H         1 UNK         0.3141 
     92 H92       -73.6845   24.7310  -73.4473 H         1 UNK         0.0743 
     93 H93       -75.8411   25.3649  -72.4143 H         1 UNK         0.0784 
     94 H94       -76.6168   25.4647  -73.9835 H         1 UNK         0.0784 
     95 H95       -76.0472   23.9099  -73.3787 H         1 UNK         0.0784 
     96 H96       -75.2994   24.6660  -75.9148 H         1 UNK         0.3213 
     97 H97       -72.4401   23.9930  -77.9698 H         1 UNK         0.0855 
     98 H98       -74.7305   22.1165  -77.1786 H         1 UNK         0.0814 
     99 H99       -73.0234   21.7227  -77.2456 H         1 UNK         0.0814 
    100 H100      -73.8925   22.0783  -78.7299 H         1 UNK         0.0814 
    101 H101      -75.2030   25.0144  -77.6972 H         1 UNK         0.3105 
    102 H102      -74.8354   26.7555  -80.7693 H         1 UNK         0.0547 
    103 H103      -77.0339   24.9022  -79.6942 H         1 UNK         0.0837 
    104 H104      -77.2504   26.1815  -80.8880 H         1 UNK         0.0837 
    105 H105      -76.2755   24.7731  -81.2753 H         1 UNK         0.0837 
    106 H106      -76.6285   27.0939  -78.5787 H         1 UNK         0.3020 
    107 H107      -74.6228   28.9693  -76.4649 H         1 UNK         0.1245 
    108 H108      -76.7932   30.3944  -78.0825 H         1 UNK         0.0781 
    109 H109      -75.1062   30.7115  -78.3426 H         1 UNK         0.0781 
    110 H110      -77.7718   32.3371  -75.2168 H         1 UNK         0.0836 
    111 H111      -78.0562   30.8313  -76.0435 H         1 UNK         0.0836 
    112 H112      -76.2529   27.9790  -75.4689 H         1 UNK         0.3022 
    113 H113      -78.2252   27.3241  -74.8326 H         1 UNK         0.0747 
    114 H114      -79.9193   29.0645  -75.7558 H         1 UNK         0.0793 
    115 H115      -80.6405   27.7056  -74.9158 H         1 UNK         0.0793 
    116 H116      -80.6387   27.7633  -76.6732 H         1 UNK         0.0793 
    117 H117      -79.8925   25.5371  -75.9740 H         1 UNK         0.3047 
    118 H118      -79.2407   23.5389  -77.6259 H         1 UNK         0.0822 
    119 H119      -76.8869   22.3562  -76.0545 H         1 UNK         0.0807 
    120 H120      -76.9516   22.6314  -77.7963 H         1 UNK         0.0807 
    121 H121      -77.9996   21.4315  -77.0619 H         1 UNK         0.0807 
    122 H122      -79.1592   23.4533  -74.6666 H         1 UNK         0.2946 
    123 H123      -82.5169   22.4595  -74.6045 H         1 UNK         0.1144 
    124 H124      -81.4345   20.2016  -74.4696 H         1 UNK         0.0793 
    125 H125      -81.8657   20.8060  -72.8800 H         1 UNK         0.0793 
    126 H126      -80.1861   20.8559  -73.4188 H         1 UNK         0.0793 
    127 H127      -80.9766   23.0515  -72.3892 H         1 UNK         0.2896 
@<TRIPOS>BOND
     1    1    2 1    
     2    1   67 1    
     3    1   68 1    
     4    1   69 1    
     5    2    3 2    
     6    2    4 am   BACKBONE|DICT|INTERRES
     7    4    5 1    
     8    4   70 1    
     9    5    6 1    
    10    5   65 1    
    11    5   71 1    
    12    6    7 1    
    13    6   72 1    
    14    6   73 1    
    15    7    8 1    
    16    8    9 1    
    17    8   74 1    
    18    8   75 1    
    19    9   10 ar   
    20    9   14 ar   
    21   10   11 ar   
    22   10   76 1    
    23   11   12 ar   
    24   11   48 1    
    25   12   13 ar   
    26   12   77 1    
    27   13   14 ar   
    28   13   15 1    
    29   14   78 1    
    30   15   16 1    
    31   15   79 1    
    32   15   80 1    
    33   16   17 1    
    34   17   18 1    
    35   17   81 1    
    36   17   82 1    
    37   18   19 1    
    38   18   22 1    
    39   18   83 1    
    40   19   20 am   BACKBONE|DICT|INTERRES
    41   19   21 2    
    42   20   84 1    
    43   20   85 1    
    44   22   23 am   BACKBONE|DICT|INTERRES
    45   22   86 1    
    46   23   24 2    
    47   23   25 1    
    48   25   26 1    
    49   25   27 1    
    50   25   87 1    
    51   26   88 1    
    52   26   89 1    
    53   26   90 1    
    54   27   28 am   BACKBONE|DICT|INTERRES
    55   27   91 1    
    56   28   29 2    
    57   28   30 1    
    58   30   31 1    
    59   30   32 1    
    60   30   92 1    
    61   31   93 1    
    62   31   94 1    
    63   31   95 1    
    64   32   33 am   BACKBONE|DICT|INTERRES
    65   32   96 1    
    66   33   34 2    
    67   33   35 1    
    68   35   36 1    
    69   35   37 1    
    70   35   97 1    
    71   36   98 1    
    72   36   99 1    
    73   36  100 1    
    74   37   38 am   BACKBONE|DICT|INTERRES
    75   37  101 1    
    76   38   39 2    
    77   38   40 1    
    78   40   41 1    
    79   40   42 1    
    80   40  102 1    
    81   41  103 1    
    82   41  104 1    
    83   41  105 1    
    84   42   43 am   BACKBONE|DICT|INTERRES
    85   42  106 1    
    86   43   44 2    
    87   43   45 1    
    88   45   46 1    
    89   45   49 1    
    90   45  107 1    
    91   46   47 1    
    92   46  108 1    
    93   46  109 1    
    94   47   48 1    
    95   48  110 1    
    96   48  111 1    
    97   49   50 am   BACKBONE|DICT|INTERRES
    98   49  112 1    
    99   50   51 2    
   100   50   52 1    
   101   52   53 1    
   102   52   54 1    
   103   52  113 1    
   104   53  114 1    
   105   53  115 1    
   106   53  116 1    
   107   54   55 am   BACKBONE|DICT|INTERRES
   108   54  117 1    
   109   55   56 2    
   110   55   57 1    
   111   57   58 1    
   112   57   59 1    
   113   57  118 1    
   114   58  119 1    
   115   58  120 1    
   116   58  121 1    
   117   59   60 am   BACKBONE|DICT|INTERRES
   118   59  122 1    
   119   60   61 2    
   120   60   62 1    
   121   62   63 1    
   122   62   64 1    
   123   62  123 1    
   124   63  124 1    
   125   63  125 1    
   126   63  126 1    
   127   64   65 am   BACKBONE|DICT|INTERRES
   128   64  127 1    
   129   65   66 2    
@<TRIPOS>SUBSTRUCTURE
     1 UNK         1 GROUP             0       ****    0 ROOT    
