@<TRIPOS>MOLECULE
3R135
127   129    1
SMALL
USER_CHARGES


@<TRIPOS>ATOM
      1 CA        -85.3315   26.6101  -71.3021 C.3       0 UNK        -0.1998 
      2 C         -84.5692   27.1784  -72.4897 C.2       0 UNK         0.4909 
      3 O         -85.0682   27.1328  -73.6144 O.2       0 UNK        -0.5240 
      4 N         -83.3669   27.7181  -72.2460 N.am      1 UNK        -0.4739 
      5 CA        -82.4715   28.2793  -73.2662 C.3       1 UNK         0.0864 
      6 C6        -81.3467   29.1123  -72.6044 C.3       11 UNK        -0.0881 
      7 S7        -80.5127   30.2741  -73.7395 S.3       11 UNK        -0.2682 
      8 C8        -78.9613   29.4017  -74.1290 C.3       11 UNK         0.0289 
      9 C9        -78.0453   29.2674  -72.9208 C.ar      11 UNK        -0.0687 
     10 C10       -78.0083   28.0675  -72.2058 C.ar      11 UNK        -0.0823 
     11 C11       -77.1595   27.9192  -71.1057 C.ar      11 UNK        -0.0830 
     12 C12       -76.3338   28.9801  -70.7300 C.ar      11 UNK        -0.1021 
     13 C13       -76.3565   30.1841  -71.4380 C.ar      11 UNK        -0.0753 
     14 C14       -77.2220   30.3280  -72.5280 C.ar      11 UNK        -0.0933 
     15 C15       -75.4375   31.3170  -71.0111 C.3       11 UNK         0.0166 
     16 S16       -73.7380   31.0451  -71.6057 S.3       11 UNK        -0.2615 
     17 C17       -73.8396   31.6856  -73.3116 C.3       11 UNK        -0.0865 
     18 CA        -74.1209   30.6018  -74.3970 C.3       10 UNK         0.0862 
     19 C         -74.3362   31.2562  -75.7987 C.2       10 UNK         0.5551 
     20 N         -73.9756   30.6193  -76.9014 N.am      10 UNK        -0.7319 
     21 O         -74.8688   32.3595  -75.8954 O.2       10 UNK        -0.5018 
     22 N         -73.1763   29.4655  -74.3316 N.am      10 UNK        -0.4509 
     23 C         -71.8569   29.5463  -74.5503 C.2       10 UNK         0.4899 
     24 O         -71.2943   30.5395  -75.0127 O.2       10 UNK        -0.4839 
     25 CA        -70.9969   28.3542  -74.1101 C.3       9 UNK         0.0222 
     26 CB        -70.9106   28.2916  -72.5720 C.3       9 UNK        -0.1966 
     27 N         -71.4413   27.0638  -74.6468 N.am      9 UNK        -0.4218 
     28 C         -70.6158   26.0183  -74.8160 C.2       9 UNK         0.5020 
     29 O         -69.4026   26.0666  -74.6025 O.2       9 UNK        -0.5274 
     30 CA        -71.2187   24.6775  -75.2718 C.3       8 UNK         0.0270 
     31 CB        -71.7141   23.8746  -74.0582 C.3       8 UNK        -0.1976 
     32 N         -72.2961   24.8152  -76.2508 N.am      8 UNK        -0.4313 
     33 C         -72.1239   25.2157  -77.5181 C.2       8 UNK         0.5041 
     34 O         -71.0251   25.4653  -78.0162 O.2       8 UNK        -0.5577 
     35 CA        -73.3930   25.3852  -78.3742 C.3       7 UNK         0.0284 
     36 CB        -73.7794   24.0584  -79.0468 C.3       7 UNK        -0.1958 
     37 N         -74.5360   25.9118  -77.6208 N.am      7 UNK        -0.4454 
     38 C         -74.5490   27.1057  -77.0122 C.2       7 UNK         0.5089 
     39 O         -73.6045   27.8918  -77.0467 O.2       7 UNK        -0.5125 
     40 CA        -75.7886   27.4559  -76.1689 C.3       6 UNK         0.0408 
     41 CB        -76.9766   27.8407  -77.0637 C.3       6 UNK        -0.1791 
     42 N         -76.1550   26.3700  -75.2571 N.am      6 UNK        -0.4762 
     43 C         -75.3586   25.9042  -74.2810 C.2       6 UNK         0.5007 
     44 O         -74.2826   26.4284  -73.9827 O.2       6 UNK        -0.5032 
     45 CA        -75.7834   24.5834  -73.5984 C.3       5 UNK         0.0783 
     46 C46       -76.7059   24.7781  -72.3771 C.3       11 UNK        -0.0857 
     47 S47       -75.8622   25.4798  -70.9242 S.3       11 UNK        -0.2512 
     48 C48       -77.1351   26.6243  -70.3089 C.3       11 UNK         0.0225 
     49 N         -76.4138   23.6763  -74.5571 N.am      5 UNK        -0.4615 
     50 C         -75.7644   22.9903  -75.5032 C.2       4 UNK         0.5053 
     51 O         -74.5447   23.0229  -75.6546 O.2       4 UNK        -0.5105 
     52 CA        -76.6346   22.1594  -76.4608 C.3       4 UNK         0.0263 
     53 CB        -76.9457   20.7828  -75.8526 C.3       4 UNK        -0.1981 
     54 N         -77.8866   22.8399  -76.8088 N.am      4 UNK        -0.4224 
     55 C         -77.9456   23.9617  -77.5402 C.2       3 UNK         0.4895 
     56 O         -76.9585   24.4980  -78.0405 O.2       3 UNK        -0.5091 
     57 CA        -79.3236   24.6175  -77.7221 C.3       3 UNK         0.0250 
     58 CB        -80.0234   24.0556  -78.9697 C.3       3 UNK        -0.1996 
     59 N         -80.2109   24.4880  -76.5618 N.am      3 UNK        -0.4254 
     60 C         -79.9820   25.0176  -75.3516 C.2       2 UNK         0.5004 
     61 O         -78.9419   25.5998  -75.0361 O.2       2 UNK        -0.5226 
     62 CA        -81.0890   24.8178  -74.3016 C.3       2 UNK         0.0269 
     63 CB        -80.6405   23.7900  -73.2495 C.3       2 UNK        -0.1926 
     64 N         -81.4971   26.0516  -73.6197 N.am      2 UNK        -0.4687 
     65 C         -81.9289   27.1797  -74.2084 C.2       1 UNK         0.5165 
     66 O         -81.9743   27.3486  -75.4279 O.2       1 UNK        -0.5079 
     67 H67       -84.7794   26.7245  -70.3694 H         1 UNK         0.0900 
     68 H68       -85.5242   25.5484  -71.4538 H         1 UNK         0.0900 
     69 H69       -86.2893   27.1182  -71.1932 H         1 UNK         0.0900 
     70 H70       -83.0209   27.7351  -71.2970 H         1 UNK         0.2959 
     71 H71       -83.0732   28.9553  -73.8787 H         1 UNK         0.1079 
     72 H72       -81.7767   29.7321  -71.8158 H         1 UNK         0.0837 
     73 H73       -80.6306   28.4693  -72.0965 H         1 UNK         0.0837 
     74 H74       -79.1948   28.4193  -74.5419 H         1 UNK         0.0685 
     75 H75       -78.4408   29.9466  -74.9178 H         1 UNK         0.0685 
     76 H76       -78.6518   27.2541  -72.5088 H         1 UNK         0.1434 
     77 H77       -75.6649   28.8677  -69.8875 H         1 UNK         0.1329 
     78 H78       -77.2459   31.2580  -73.0795 H         1 UNK         0.1335 
     79 H79       -75.8150   32.2807  -71.3560 H         1 UNK         0.0680 
     80 H80       -75.4195   31.3741  -69.9217 H         1 UNK         0.0680 
     81 H81       -72.9005   32.1961  -73.5311 H         1 UNK         0.1032 
     82 H82       -74.6032   32.4647  -73.3386 H         1 UNK         0.1032 
     83 H83       -75.0870   30.1604  -74.1625 H         1 UNK         0.0461 
     84 H84       -73.6103   29.6702  -76.8579 H         1 UNK         0.3453 
     85 H85       -74.1219   31.0599  -77.7945 H         1 UNK         0.3453 
     86 H86       -73.5574   28.6039  -73.9622 H         1 UNK         0.2984 
     87 H87       -69.9932   28.5560  -74.4912 H         1 UNK         0.0554 
     88 H88       -70.1647   27.5684  -72.2425 H         1 UNK         0.0847 
     89 H89       -71.8666   28.0125  -72.1267 H         1 UNK         0.0847 
     90 H90       -70.6275   29.2590  -72.1547 H         1 UNK         0.0847 
     91 H91       -72.4330   26.9497  -74.8303 H         1 UNK         0.3141 
     92 H92       -70.4189   24.1033  -75.7446 H         1 UNK         0.0743 
     93 H93       -72.5039   24.3998  -73.5220 H         1 UNK         0.0784 
     94 H94       -72.0974   22.8981  -74.3548 H         1 UNK         0.0784 
     95 H95       -70.9026   23.7017  -73.3500 H         1 UNK         0.0784 
     96 H96       -73.2253   24.5325  -75.9561 H         1 UNK         0.3213 
     97 H97       -73.1613   26.1079  -79.1594 H         1 UNK         0.0855 
     98 H98       -74.0397   23.2943  -78.3143 H         1 UNK         0.0814 
     99 H99       -72.9540   23.6695  -79.6444 H         1 UNK         0.0814 
    100 H100      -74.6318   24.1854  -79.7144 H         1 UNK         0.0814 
    101 H101      -75.3779   25.3388  -77.5980 H         1 UNK         0.3105 
    102 H102      -75.5490   28.3208  -75.5513 H         1 UNK         0.0547 
    103 H103      -76.7702   28.7717  -77.5930 H         1 UNK         0.0837 
    104 H104      -77.1845   27.0841  -77.8185 H         1 UNK         0.0837 
    105 H105      -77.8866   27.9898  -76.4851 H         1 UNK         0.0837 
    106 H106      -77.0638   25.9352  -75.3924 H         1 UNK         0.3020 
    107 H107      -74.8690   24.0999  -73.2479 H         1 UNK         0.1245 
    108 H108      -77.1020   23.8121  -72.0592 H         1 UNK         0.0781 
    109 H109      -77.5763   25.3691  -72.6524 H         1 UNK         0.0781 
    110 H110      -76.9300   26.8430  -69.2598 H         1 UNK         0.0836 
    111 H111      -78.1130   26.1403  -70.3282 H         1 UNK         0.0836 
    112 H112      -77.4220   23.6385  -74.5401 H         1 UNK         0.3022 
    113 H113      -76.0639   22.0059  -77.3793 H         1 UNK         0.0747 
    114 H114      -77.4978   20.1557  -76.5529 H         1 UNK         0.0793 
    115 H115      -76.0261   20.2522  -75.6013 H         1 UNK         0.0793 
    116 H116      -77.5347   20.8652  -74.9382 H         1 UNK         0.0793 
    117 H117      -78.7449   22.4500  -76.4477 H         1 UNK         0.3047 
    118 H118      -79.1560   25.6843  -77.8819 H         1 UNK         0.0822 
    119 H119      -80.9540   24.5849  -79.1755 H         1 UNK         0.0807 
    120 H120      -80.2555   22.9953  -78.8621 H         1 UNK         0.0807 
    121 H121      -79.3914   24.1627  -79.8527 H         1 UNK         0.0807 
    122 H122      -81.0883   24.0151  -76.7251 H         1 UNK         0.2946 
    123 H123      -81.9768   24.4275  -74.8039 H         1 UNK         0.1144 
    124 H124      -81.4475   23.5538  -72.5557 H         1 UNK         0.0793 
    125 H125      -79.7936   24.1531  -72.6663 H         1 UNK         0.0793 
    126 H126      -80.3366   22.8529  -73.7182 H         1 UNK         0.0793 
    127 H127      -81.5182   26.0139  -72.6117 H         1 UNK         0.2896 
@<TRIPOS>BOND
     1    1    2 1    
     2    1   67 1    
     3    1   68 1    
     4    1   69 1    
     5    2    3 2    
     6    2    4 am   BACKBONE|DICT|INTERRES
     7    4    5 1    
     8    4   70 1    
     9    5    6 1    
    10    5   65 1    
    11    5   71 1    
    12    6    7 1    
    13    6   72 1    
    14    6   73 1    
    15    7    8 1    
    16    8    9 1    
    17    8   74 1    
    18    8   75 1    
    19    9   10 ar   
    20    9   14 ar   
    21   10   11 ar   
    22   10   76 1    
    23   11   12 ar   
    24   11   48 1    
    25   12   13 ar   
    26   12   77 1    
    27   13   14 ar   
    28   13   15 1    
    29   14   78 1    
    30   15   16 1    
    31   15   79 1    
    32   15   80 1    
    33   16   17 1    
    34   17   18 1    
    35   17   81 1    
    36   17   82 1    
    37   18   19 1    
    38   18   22 1    
    39   18   83 1    
    40   19   20 am   BACKBONE|DICT|INTERRES
    41   19   21 2    
    42   20   84 1    
    43   20   85 1    
    44   22   23 am   BACKBONE|DICT|INTERRES
    45   22   86 1    
    46   23   24 2    
    47   23   25 1    
    48   25   26 1    
    49   25   27 1    
    50   25   87 1    
    51   26   88 1    
    52   26   89 1    
    53   26   90 1    
    54   27   28 am   BACKBONE|DICT|INTERRES
    55   27   91 1    
    56   28   29 2    
    57   28   30 1    
    58   30   31 1    
    59   30   32 1    
    60   30   92 1    
    61   31   93 1    
    62   31   94 1    
    63   31   95 1    
    64   32   33 am   BACKBONE|DICT|INTERRES
    65   32   96 1    
    66   33   34 2    
    67   33   35 1    
    68   35   36 1    
    69   35   37 1    
    70   35   97 1    
    71   36   98 1    
    72   36   99 1    
    73   36  100 1    
    74   37   38 am   BACKBONE|DICT|INTERRES
    75   37  101 1    
    76   38   39 2    
    77   38   40 1    
    78   40   41 1    
    79   40   42 1    
    80   40  102 1    
    81   41  103 1    
    82   41  104 1    
    83   41  105 1    
    84   42   43 am   BACKBONE|DICT|INTERRES
    85   42  106 1    
    86   43   44 2    
    87   43   45 1    
    88   45   46 1    
    89   45   49 1    
    90   45  107 1    
    91   46   47 1    
    92   46  108 1    
    93   46  109 1    
    94   47   48 1    
    95   48  110 1    
    96   48  111 1    
    97   49   50 am   BACKBONE|DICT|INTERRES
    98   49  112 1    
    99   50   51 2    
   100   50   52 1    
   101   52   53 1    
   102   52   54 1    
   103   52  113 1    
   104   53  114 1    
   105   53  115 1    
   106   53  116 1    
   107   54   55 am   BACKBONE|DICT|INTERRES
   108   54  117 1    
   109   55   56 2    
   110   55   57 1    
   111   57   58 1    
   112   57   59 1    
   113   57  118 1    
   114   58  119 1    
   115   58  120 1    
   116   58  121 1    
   117   59   60 am   BACKBONE|DICT|INTERRES
   118   59  122 1    
   119   60   61 2    
   120   60   62 1    
   121   62   63 1    
   122   62   64 1    
   123   62  123 1    
   124   63  124 1    
   125   63  125 1    
   126   63  126 1    
   127   64   65 am   BACKBONE|DICT|INTERRES
   128   64  127 1    
   129   65   66 2    
@<TRIPOS>SUBSTRUCTURE
     1 UNK         1 GROUP             0       ****    0 ROOT    
