@<TRIPOS>MOLECULE
3R135
127   129    1
SMALL
USER_CHARGES


@<TRIPOS>ATOM
      1 CA        -78.0917   23.6483  -69.8456 C.3       0 UNK        -0.1998 
      2 C         -79.0981   24.0958  -70.8936 C.2       0 UNK         0.4909 
      3 O         -78.9181   23.7933  -72.0713 O.2       0 UNK        -0.5240 
      4 N         -80.1639   24.7885  -70.4645 N.am      1 UNK        -0.4739 
      5 CA        -81.2392   25.4260  -71.2515 C.3       1 UNK         0.0864 
      6 C6        -80.7902   26.7523  -71.9379 C.3       11 UNK        -0.0881 
      7 S7        -79.9338   26.5771  -73.5430 S.3       11 UNK        -0.2682 
      8 C8        -78.2072   26.9439  -73.0946 C.3       11 UNK         0.0289 
      9 C9        -77.8977   28.4311  -72.9578 C.ar      11 UNK        -0.0687 
     10 C10       -78.4037   29.3578  -73.8744 C.ar      11 UNK        -0.0823 
     11 C11       -78.0168   30.7009  -73.8250 C.ar      11 UNK        -0.0830 
     12 C12       -77.1526   31.1220  -72.8117 C.ar      11 UNK        -0.1021 
     13 C13       -76.6590   30.2184  -71.8660 C.ar      11 UNK        -0.0753 
     14 C14       -77.0367   28.8717  -71.9479 C.ar      11 UNK        -0.0933 
     15 C15       -75.7436   30.7436  -70.7604 C.3       11 UNK         0.0166 
     16 S16       -74.5019   29.5571  -70.1341 S.3       11 UNK        -0.2615 
     17 C17       -73.1871   29.3783  -71.4020 C.3       11 UNK        -0.0865 
     18 CA        -73.2416   30.2249  -72.7133 C.3       10 UNK         0.0862 
     19 C         -72.6901   31.6768  -72.5611 C.2       10 UNK         0.5551 
     20 N         -72.2257   32.3068  -73.6337 N.am      10 UNK        -0.7319 
     21 O         -72.6908   32.2487  -71.4742 O.2       10 UNK        -0.5018 
     22 N         -72.6645   29.4784  -73.8445 N.am      10 UNK        -0.4509 
     23 C         -71.3932   29.0626  -73.9435 C.2       10 UNK         0.4899 
     24 O         -70.5010   29.3601  -73.1473 O.2       10 UNK        -0.4839 
     25 CA        -71.1066   28.0957  -75.1076 C.3       9 UNK         0.0222 
     26 CB        -69.6670   27.5399  -75.1075 C.3       9 UNK        -0.1966 
     27 N         -72.0961   27.0114  -75.1401 N.am      9 UNK        -0.4218 
     28 C         -72.3577   26.1096  -74.1787 C.2       9 UNK         0.5020 
     29 O         -71.6963   25.9812  -73.1477 O.2       9 UNK        -0.5274 
     30 CA        -73.5940   25.2152  -74.3793 C.3       8 UNK         0.0270 
     31 CB        -74.7726   25.7495  -73.5485 C.3       8 UNK        -0.1976 
     32 N         -74.0062   25.1128  -75.7804 N.am      8 UNK        -0.4313 
     33 C         -73.3719   24.3817  -76.7068 C.2       8 UNK         0.5041 
     34 O         -72.4110   23.6496  -76.4675 O.2       8 UNK        -0.5577 
     35 CA        -73.8785   24.5190  -78.1501 C.3       7 UNK         0.0284 
     36 CB        -75.1483   23.6804  -78.3728 C.3       7 UNK        -0.1958 
     37 N         -74.1328   25.9175  -78.5067 N.am      7 UNK        -0.4454 
     38 C         -73.1751   26.8217  -78.7585 C.2       7 UNK         0.5089 
     39 O         -71.9711   26.5688  -78.7370 O.2       7 UNK        -0.5125 
     40 CA        -73.6321   28.2536  -79.0866 C.3       6 UNK         0.0408 
     41 CB        -73.7737   28.4344  -80.6061 C.3       6 UNK        -0.1791 
     42 N         -74.8931   28.6168  -78.4360 N.am      6 UNK        -0.4762 
     43 C         -75.0143   28.9203  -77.1361 C.2       6 UNK         0.5007 
     44 O         -74.0748   28.9350  -76.3402 O.2       6 UNK        -0.5032 
     45 CA        -76.4387   29.2106  -76.6326 C.3       5 UNK         0.0783 
     46 C46       -76.8305   30.6881  -76.9072 C.3       11 UNK        -0.0857 
     47 S47       -78.5852   31.0652  -76.5575 S.3       11 UNK        -0.2512 
     48 C48       -78.5247   31.7110  -74.8508 C.3       11 UNK         0.0225 
     49 N         -77.4333   28.2515  -77.1339 N.am      5 UNK        -0.4615 
     50 C         -77.4028   26.9307  -76.9256 C.2       4 UNK         0.5053 
     51 O         -76.4537   26.3362  -76.4065 O.2       4 UNK        -0.5105 
     52 CA        -78.6240   26.1340  -77.3913 C.3       4 UNK         0.0263 
     53 CB        -78.5849   25.8965  -78.9115 C.3       4 UNK        -0.1981 
     54 N         -78.6144   24.8582  -76.6854 N.am      4 UNK        -0.4224 
     55 C         -79.6739   24.0970  -76.3953 C.2       3 UNK         0.4895 
     56 O         -80.8209   24.3666  -76.7569 O.2       3 UNK        -0.5091 
     57 CA        -79.4062   22.8089  -75.5887 C.3       3 UNK         0.0250 
     58 CB        -77.9464   22.6625  -75.1037 C.3       3 UNK        -0.1996 
     59 N         -80.2950   22.7307  -74.4289 N.am      3 UNK        -0.4254 
     60 C         -81.5131   22.1670  -74.4182 C.2       2 UNK         0.5004 
     61 O         -82.0163   21.6073  -75.3938 O.2       2 UNK        -0.5226 
     62 CA        -82.3046   22.1936  -73.0944 C.3       2 UNK         0.0269 
     63 CB        -82.2820   20.8083  -72.4267 C.3       2 UNK        -0.1926 
     64 N         -81.7872   23.1810  -72.1461 N.am      2 UNK        -0.4687 
     65 C         -82.0601   24.4915  -72.1799 C.2       1 UNK         0.5165 
     66 O         -82.9387   24.9717  -72.8985 O.2       1 UNK        -0.5079 
     67 H67       -77.1093   24.0608  -70.0736 H         1 UNK         0.0900 
     68 H68       -78.3717   23.9724  -68.8436 H         1 UNK         0.0900 
     69 H69       -78.0122   22.5617  -69.8425 H         1 UNK         0.0900 
     70 H70       -80.2453   24.9450  -69.4690 H         1 UNK         0.2959 
     71 H71       -81.9654   25.7203  -70.4919 H         1 UNK         0.1079 
     72 H72       -81.6690   27.3727  -72.1215 H         1 UNK         0.0837 
     73 H73       -80.1702   27.3370  -71.2566 H         1 UNK         0.0837 
     74 H74       -77.9482   26.4102  -72.1805 H         1 UNK         0.0685 
     75 H75       -77.5696   26.5364  -73.8777 H         1 UNK         0.0685 
     76 H76       -79.0680   29.0228  -74.6584 H         1 UNK         0.1434 
     77 H77       -76.8632   32.1629  -72.7560 H         1 UNK         0.1329 
     78 H78       -76.6517   28.1592  -71.2321 H         1 UNK         0.1335 
     79 H79       -75.2429   31.6595  -71.0728 H         1 UNK         0.0680 
     80 H80       -76.3786   31.0278  -69.9205 H         1 UNK         0.0680 
     81 H81       -73.2052   28.3188  -71.6638 H         1 UNK         0.1032 
     82 H82       -72.2235   29.5199  -70.9092 H         1 UNK         0.1032 
     83 H83       -74.2816   30.3449  -73.0034 H         1 UNK         0.0461 
     84 H84       -71.8702   33.2452  -73.5416 H         1 UNK         0.3453 
     85 H85       -72.2169   31.8469  -74.5301 H         1 UNK         0.3453 
     86 H86       -73.3036   29.2304  -74.5949 H         1 UNK         0.2984 
     87 H87       -71.2414   28.6655  -76.0282 H         1 UNK         0.0554 
     88 H88       -69.5026   26.8696  -75.9511 H         1 UNK         0.0847 
     89 H89       -69.4414   26.9903  -74.1932 H         1 UNK         0.0847 
     90 H90       -68.9387   28.3477  -75.1875 H         1 UNK         0.0847 
     91 H91       -72.7429   27.0517  -75.9160 H         1 UNK         0.3141 
     92 H92       -73.3430   24.2162  -74.0165 H         1 UNK         0.0743 
     93 H93       -75.0791   26.7436  -73.8780 H         1 UNK         0.0784 
     94 H94       -75.6358   25.0877  -73.6190 H         1 UNK         0.0784 
     95 H95       -74.5079   25.8239  -72.4928 H         1 UNK         0.0784 
     96 H96       -74.8311   25.6464  -76.0547 H         1 UNK         0.3213 
     97 H97       -73.1008   24.1328  -78.8132 H         1 UNK         0.0855 
     98 H98       -75.9745   24.0149  -77.7469 H         1 UNK         0.0814 
     99 H99       -74.9665   22.6313  -78.1358 H         1 UNK         0.0814 
    100 H100      -75.4751   23.7242  -79.4118 H         1 UNK         0.0814 
    101 H101      -75.0933   26.2265  -78.5016 H         1 UNK         0.3105 
    102 H102      -72.8549   28.9366  -78.7362 H         1 UNK         0.0547 
    103 H103      -72.8388   28.1960  -81.1154 H         1 UNK         0.0837 
    104 H104      -74.5452   27.7856  -81.0226 H         1 UNK         0.0837 
    105 H105      -74.0252   29.4638  -80.8619 H         1 UNK         0.0837 
    106 H106      -75.7235   28.6255  -79.0114 H         1 UNK         0.3020 
    107 H107      -76.3896   29.0709  -75.5523 H         1 UNK         0.1245 
    108 H108      -76.1961   31.3632  -76.3293 H         1 UNK         0.0781 
    109 H109      -76.6587   30.9395  -77.9557 H         1 UNK         0.0781 
    110 H110      -79.5285   32.0234  -74.5606 H         1 UNK         0.0836 
    111 H111      -77.9082   32.6114  -74.8441 H         1 UNK         0.0836 
    112 H112      -78.2467   28.6617  -77.5705 H         1 UNK         0.3022 
    113 H113      -79.5242   26.6902  -77.1205 H         1 UNK         0.0747 
    114 H114      -79.4539   25.3286  -79.2444 H         1 UNK         0.0793 
    115 H115      -78.5890   26.8397  -79.4590 H         1 UNK         0.0793 
    116 H116      -77.6931   25.3458  -79.2124 H         1 UNK         0.0793 
    117 H117      -77.7119   24.6193  -76.2946 H         1 UNK         0.3047 
    118 H118      -79.6142   21.9716  -76.2579 H         1 UNK         0.0822 
    119 H119      -77.8183   21.7468  -74.5261 H         1 UNK         0.0807 
    120 H120      -77.6417   23.4935  -74.4653 H         1 UNK         0.0807 
    121 H121      -77.2493   22.6049  -75.9406 H         1 UNK         0.0807 
    122 H122      -79.9566   23.1821  -73.5821 H         1 UNK         0.2946 
    123 H123      -83.3403   22.4405  -73.3396 H         1 UNK         0.1144 
    124 H124      -82.6893   20.0468  -73.0934 H         1 UNK         0.0793 
    125 H125      -82.8838   20.7961  -71.5178 H         1 UNK         0.0793 
    126 H126      -81.2683   20.5032  -72.1639 H         1 UNK         0.0793 
    127 H127      -81.0336   22.8818  -71.5432 H         1 UNK         0.2896 
@<TRIPOS>BOND
     1    1    2 1    
     2    1   67 1    
     3    1   68 1    
     4    1   69 1    
     5    2    3 2    
     6    2    4 am   BACKBONE|DICT|INTERRES
     7    4    5 1    
     8    4   70 1    
     9    5    6 1    
    10    5   65 1    
    11    5   71 1    
    12    6    7 1    
    13    6   72 1    
    14    6   73 1    
    15    7    8 1    
    16    8    9 1    
    17    8   74 1    
    18    8   75 1    
    19    9   10 ar   
    20    9   14 ar   
    21   10   11 ar   
    22   10   76 1    
    23   11   12 ar   
    24   11   48 1    
    25   12   13 ar   
    26   12   77 1    
    27   13   14 ar   
    28   13   15 1    
    29   14   78 1    
    30   15   16 1    
    31   15   79 1    
    32   15   80 1    
    33   16   17 1    
    34   17   18 1    
    35   17   81 1    
    36   17   82 1    
    37   18   19 1    
    38   18   22 1    
    39   18   83 1    
    40   19   20 am   BACKBONE|DICT|INTERRES
    41   19   21 2    
    42   20   84 1    
    43   20   85 1    
    44   22   23 am   BACKBONE|DICT|INTERRES
    45   22   86 1    
    46   23   24 2    
    47   23   25 1    
    48   25   26 1    
    49   25   27 1    
    50   25   87 1    
    51   26   88 1    
    52   26   89 1    
    53   26   90 1    
    54   27   28 am   BACKBONE|DICT|INTERRES
    55   27   91 1    
    56   28   29 2    
    57   28   30 1    
    58   30   31 1    
    59   30   32 1    
    60   30   92 1    
    61   31   93 1    
    62   31   94 1    
    63   31   95 1    
    64   32   33 am   BACKBONE|DICT|INTERRES
    65   32   96 1    
    66   33   34 2    
    67   33   35 1    
    68   35   36 1    
    69   35   37 1    
    70   35   97 1    
    71   36   98 1    
    72   36   99 1    
    73   36  100 1    
    74   37   38 am   BACKBONE|DICT|INTERRES
    75   37  101 1    
    76   38   39 2    
    77   38   40 1    
    78   40   41 1    
    79   40   42 1    
    80   40  102 1    
    81   41  103 1    
    82   41  104 1    
    83   41  105 1    
    84   42   43 am   BACKBONE|DICT|INTERRES
    85   42  106 1    
    86   43   44 2    
    87   43   45 1    
    88   45   46 1    
    89   45   49 1    
    90   45  107 1    
    91   46   47 1    
    92   46  108 1    
    93   46  109 1    
    94   47   48 1    
    95   48  110 1    
    96   48  111 1    
    97   49   50 am   BACKBONE|DICT|INTERRES
    98   49  112 1    
    99   50   51 2    
   100   50   52 1    
   101   52   53 1    
   102   52   54 1    
   103   52  113 1    
   104   53  114 1    
   105   53  115 1    
   106   53  116 1    
   107   54   55 am   BACKBONE|DICT|INTERRES
   108   54  117 1    
   109   55   56 2    
   110   55   57 1    
   111   57   58 1    
   112   57   59 1    
   113   57  118 1    
   114   58  119 1    
   115   58  120 1    
   116   58  121 1    
   117   59   60 am   BACKBONE|DICT|INTERRES
   118   59  122 1    
   119   60   61 2    
   120   60   62 1    
   121   62   63 1    
   122   62   64 1    
   123   62  123 1    
   124   63  124 1    
   125   63  125 1    
   126   63  126 1    
   127   64   65 am   BACKBONE|DICT|INTERRES
   128   64  127 1    
   129   65   66 2    
@<TRIPOS>SUBSTRUCTURE
     1 UNK         1 GROUP             0       ****    0 ROOT    
