@<TRIPOS>MOLECULE
3R135
127   129    1
SMALL
USER_CHARGES


@<TRIPOS>ATOM
      1 CA        -84.2055   24.3522  -69.7692 C.3       0 UNK        -0.1998 
      2 C         -83.4868   24.9881  -70.9491 C.2       0 UNK         0.4909 
      3 O         -84.1028   25.2248  -71.9894 O.2       0 UNK        -0.5240 
      4 N         -82.1839   25.2596  -70.8047 N.am      1 UNK        -0.4739 
      5 CA        -81.3214   25.8827  -71.8174 C.3       1 UNK         0.0864 
      6 C6        -80.0893   26.5821  -71.1787 C.3       11 UNK        -0.0881 
      7 S7        -80.4889   27.7390  -69.8221 S.3       11 UNK        -0.2682 
      8 C8        -80.6912   29.3329  -70.6873 C.3       11 UNK         0.0289 
      9 C9        -79.4820   29.7564  -71.5173 C.ar      11 UNK        -0.0687 
     10 C10       -79.6764   30.2263  -72.8190 C.ar      11 UNK        -0.0823 
     11 C11       -78.5909   30.6176  -73.6073 C.ar      11 UNK        -0.0830 
     12 C12       -77.2979   30.5427  -73.0847 C.ar      11 UNK        -0.1021 
     13 C13       -77.0877   30.0794  -71.7826 C.ar      11 UNK        -0.0753 
     14 C14       -78.1822   29.6952  -71.0003 C.ar      11 UNK        -0.0933 
     15 C15       -75.6740   29.9855  -71.2329 C.3       11 UNK         0.0166 
     16 S16       -74.8360   28.5116  -71.8829 S.3       11 UNK        -0.2615 
     17 C17       -73.1714   28.6990  -71.1586 C.3       11 UNK        -0.0865 
     18 CA        -72.1746   29.4751  -72.0630 C.3       10 UNK         0.0862 
     19 C         -70.7648   29.4972  -71.4011 C.2       10 UNK         0.5551 
     20 N         -69.7732   28.7852  -71.9249 N.am      10 UNK        -0.7319 
     21 O         -70.5739   30.1702  -70.3915 O.2       10 UNK        -0.5018 
     22 N         -72.2032   28.9837  -73.4485 N.am      10 UNK        -0.4509 
     23 C         -71.5986   29.5439  -74.5045 C.2       10 UNK         0.4899 
     24 O         -70.9739   30.6041  -74.4534 O.2       10 UNK        -0.4839 
     25 CA        -71.7267   28.7928  -75.8458 C.3       9 UNK         0.0222 
     26 CB        -70.5039   28.9923  -76.7656 C.3       9 UNK        -0.1966 
     27 N         -72.0455   27.3677  -75.6824 N.am      9 UNK        -0.4218 
     28 C         -71.2913   26.4215  -75.0997 C.2       9 UNK         0.5020 
     29 O         -70.1580   26.6194  -74.6595 O.2       9 UNK        -0.5274 
     30 CA        -71.9199   25.0299  -74.9328 C.3       8 UNK         0.0270 
     31 CB        -72.5916   24.9182  -73.5526 C.3       8 UNK        -0.1976 
     32 N         -72.9104   24.7443  -75.9763 N.am      8 UNK        -0.4313 
     33 C         -72.7872   23.7834  -76.9008 C.2       8 UNK         0.5041 
     34 O         -71.8320   23.0076  -76.9620 O.2       8 UNK        -0.5577 
     35 CA        -73.9157   23.6484  -77.9381 C.3       7 UNK         0.0284 
     36 CB        -74.9950   22.6685  -77.4492 C.3       7 UNK        -0.1958 
     37 N         -74.5389   24.9193  -78.3205 N.am      7 UNK        -0.4454 
     38 C         -73.9358   25.8483  -79.0792 C.2       7 UNK         0.5089 
     39 O         -72.7642   25.7721  -79.4495 O.2       7 UNK        -0.5125 
     40 CA        -74.7764   27.0542  -79.5231 C.3       6 UNK         0.0408 
     41 CB        -75.6417   26.6808  -80.7379 C.3       6 UNK        -0.1791 
     42 N         -75.6426   27.5271  -78.4463 N.am      6 UNK        -0.4762 
     43 C         -75.4843   28.6781  -77.7760 C.2       6 UNK         0.5007 
     44 O         -74.6162   29.5133  -78.0286 O.2       6 UNK        -0.5032 
     45 CA        -76.4785   28.9413  -76.6237 C.3       5 UNK         0.0783 
     46 C46       -77.7227   29.6698  -77.2061 C.3       11 UNK        -0.0857 
     47 S47       -79.1920   29.7096  -76.1257 S.3       11 UNK        -0.2512 
     48 C48       -78.8288   31.1095  -75.0247 C.3       11 UNK         0.0225 
     49 N         -76.8384   27.7265  -75.8835 N.am      5 UNK        -0.4615 
     50 C         -76.0103   26.7980  -75.3837 C.2       4 UNK         0.5053 
     51 O         -74.7826   26.8706  -75.4237 O.2       4 UNK        -0.5105 
     52 CA        -76.6569   25.5157  -74.8331 C.3       4 UNK         0.0263 
     53 CB        -76.7593   25.5963  -73.3040 C.3       4 UNK        -0.1981 
     54 N         -77.9695   25.2033  -75.4236 N.am      4 UNK        -0.4224 
     55 C         -78.2073   25.0632  -76.7412 C.2       3 UNK         0.4895 
     56 O         -77.3163   25.1327  -77.5938 O.2       3 UNK        -0.5091 
     57 CA        -79.6718   24.9165  -77.2049 C.3       3 UNK         0.0250 
     58 CB        -79.7992   24.0750  -78.4933 C.3       3 UNK        -0.1996 
     59 N         -80.6072   24.4615  -76.1669 N.am      3 UNK        -0.4254 
     60 C         -80.6476   23.2568  -75.5789 C.2       2 UNK         0.5004 
     61 O         -79.8828   22.3309  -75.8543 O.2       2 UNK        -0.5226 
     62 CA        -81.7193   23.0758  -74.4798 C.3       2 UNK         0.0269 
     63 CB        -81.5013   21.7910  -73.6526 C.3       2 UNK        -0.1926 
     64 N         -81.8662   24.2257  -73.5694 N.am      2 UNK        -0.4687 
     65 C         -80.8932   24.8479  -72.8861 C.2       1 UNK         0.5165 
     66 O         -79.6992   24.6079  -73.0571 O.2       1 UNK        -0.5079 
     67 H67       -85.0351   24.9831  -69.4519 H         1 UNK         0.0900 
     68 H68       -83.5420   24.2104  -68.9165 H         1 UNK         0.0900 
     69 H69       -84.6057   23.3795  -70.0538 H         1 UNK         0.0900 
     70 H70       -81.7263   25.0362  -69.9323 H         1 UNK         0.2959 
     71 H71       -81.8986   26.6512  -72.3363 H         1 UNK         0.1079 
     72 H72       -79.4074   25.8385  -70.7613 H         1 UNK         0.0837 
     73 H73       -79.5163   27.1064  -71.9444 H         1 UNK         0.0837 
     74 H74       -81.5832   29.2667  -71.3123 H         1 UNK         0.0685 
     75 H75       -80.8926   30.1078  -69.9467 H         1 UNK         0.0685 
     76 H76       -80.6758   30.2807  -73.2294 H         1 UNK         0.1434 
     77 H77       -76.4511   30.8340  -73.6908 H         1 UNK         0.1329 
     78 H78       -78.0223   29.3341  -69.9936 H         1 UNK         0.1335 
     79 H79       -75.1104   30.8777  -71.5097 H         1 UNK         0.0680 
     80 H80       -75.6864   29.9471  -70.1424 H         1 UNK         0.0680 
     81 H81       -73.2578   29.1808  -70.1826 H         1 UNK         0.1032 
     82 H82       -72.7926   27.6943  -70.9605 H         1 UNK         0.1032 
     83 H83       -72.5081   30.5137  -72.1015 H         1 UNK         0.0461 
     84 H84       -68.8647   28.8068  -71.4897 H         1 UNK         0.3453 
     85 H85       -69.9230   28.2324  -72.7566 H         1 UNK         0.3453 
     86 H86       -72.7306   28.1365  -73.5972 H         1 UNK         0.2984 
     87 H87       -72.5877   29.2334  -76.3475 H         1 UNK         0.0554 
     88 H88       -70.6246   28.4544  -77.7060 H         1 UNK         0.0847 
     89 H89       -69.5815   28.6488  -76.2968 H         1 UNK         0.0847 
     90 H90       -70.3683   30.0460  -77.0124 H         1 UNK         0.0847 
     91 H91       -73.0128   27.1298  -75.8858 H         1 UNK         0.3141 
     92 H92       -71.1042   24.3048  -74.9693 H         1 UNK         0.0743 
     93 H93       -73.3936   25.6462  -73.4285 H         1 UNK         0.0784 
     94 H94       -73.0146   23.9255  -73.3981 H         1 UNK         0.0784 
     95 H95       -71.8700   25.0908  -72.7528 H         1 UNK         0.0784 
     96 H96       -73.7259   25.3474  -76.0006 H         1 UNK         0.3213 
     97 H97       -73.4695   23.2199  -78.8386 H         1 UNK         0.0855 
     98 H98       -75.4954   23.0249  -76.5502 H         1 UNK         0.0814 
     99 H99       -74.5600   21.6961  -77.2144 H         1 UNK         0.0814 
    100 H100      -75.7574   22.5059  -78.2114 H         1 UNK         0.0814 
    101 H101      -75.5210   25.0336  -78.0800 H         1 UNK         0.3105 
    102 H102      -74.0861   27.8421  -79.8320 H         1 UNK         0.0547 
    103 H103      -75.0244   26.3160  -81.5600 H         1 UNK         0.0837 
    104 H104      -76.3631   25.8982  -80.4980 H         1 UNK         0.0837 
    105 H105      -76.1957   27.5436  -81.1077 H         1 UNK         0.0837 
    106 H106      -76.3747   26.8931  -78.1441 H         1 UNK         0.3020 
    107 H107      -75.9836   29.6043  -75.9116 H         1 UNK         0.1245 
    108 H108      -78.0546   29.1809  -78.1251 H         1 UNK         0.0781 
    109 H109      -77.4638   30.6895  -77.4975 H         1 UNK         0.0781 
    110 H110      -79.6753   31.7978  -75.0350 H         1 UNK         0.0836 
    111 H111      -77.9714   31.6782  -75.3876 H         1 UNK         0.0836 
    112 H112      -77.8308   27.5787  -75.7730 H         1 UNK         0.3022 
    113 H113      -75.9873   24.6908  -75.0755 H         1 UNK         0.0747 
    114 H114      -77.0971   24.6521  -72.8777 H         1 UNK         0.0793 
    115 H115      -75.7888   25.8137  -72.8574 H         1 UNK         0.0793 
    116 H116      -77.4457   26.3814  -72.9858 H         1 UNK         0.0793 
    117 H117      -78.7340   25.0773  -74.7671 H         1 UNK         0.3047 
    118 H118      -79.9906   25.9291  -77.4559 H         1 UNK         0.0822 
    119 H119      -80.8370   23.9960  -78.8166 H         1 UNK         0.0807 
    120 H120      -79.4100   23.0655  -78.3595 H         1 UNK         0.0807 
    121 H121      -79.2407   24.5278  -79.3134 H         1 UNK         0.0807 
    122 H122      -81.2748   25.1513  -75.8503 H         1 UNK         0.2946 
    123 H123      -82.6700   22.9709  -75.0054 H         1 UNK         0.1144 
    124 H124      -80.5479   21.8116  -73.1232 H         1 UNK         0.0793 
    125 H125      -81.5020   20.9061  -74.2905 H         1 UNK         0.0793 
    126 H126      -82.2916   21.6554  -72.9143 H         1 UNK         0.0793 
    127 H127      -82.8193   24.4957  -73.3412 H         1 UNK         0.2896 
@<TRIPOS>BOND
     1    1    2 1    
     2    1   67 1    
     3    1   68 1    
     4    1   69 1    
     5    2    3 2    
     6    2    4 am   BACKBONE|DICT|INTERRES
     7    4    5 1    
     8    4   70 1    
     9    5    6 1    
    10    5   65 1    
    11    5   71 1    
    12    6    7 1    
    13    6   72 1    
    14    6   73 1    
    15    7    8 1    
    16    8    9 1    
    17    8   74 1    
    18    8   75 1    
    19    9   10 ar   
    20    9   14 ar   
    21   10   11 ar   
    22   10   76 1    
    23   11   12 ar   
    24   11   48 1    
    25   12   13 ar   
    26   12   77 1    
    27   13   14 ar   
    28   13   15 1    
    29   14   78 1    
    30   15   16 1    
    31   15   79 1    
    32   15   80 1    
    33   16   17 1    
    34   17   18 1    
    35   17   81 1    
    36   17   82 1    
    37   18   19 1    
    38   18   22 1    
    39   18   83 1    
    40   19   20 am   BACKBONE|DICT|INTERRES
    41   19   21 2    
    42   20   84 1    
    43   20   85 1    
    44   22   23 am   BACKBONE|DICT|INTERRES
    45   22   86 1    
    46   23   24 2    
    47   23   25 1    
    48   25   26 1    
    49   25   27 1    
    50   25   87 1    
    51   26   88 1    
    52   26   89 1    
    53   26   90 1    
    54   27   28 am   BACKBONE|DICT|INTERRES
    55   27   91 1    
    56   28   29 2    
    57   28   30 1    
    58   30   31 1    
    59   30   32 1    
    60   30   92 1    
    61   31   93 1    
    62   31   94 1    
    63   31   95 1    
    64   32   33 am   BACKBONE|DICT|INTERRES
    65   32   96 1    
    66   33   34 2    
    67   33   35 1    
    68   35   36 1    
    69   35   37 1    
    70   35   97 1    
    71   36   98 1    
    72   36   99 1    
    73   36  100 1    
    74   37   38 am   BACKBONE|DICT|INTERRES
    75   37  101 1    
    76   38   39 2    
    77   38   40 1    
    78   40   41 1    
    79   40   42 1    
    80   40  102 1    
    81   41  103 1    
    82   41  104 1    
    83   41  105 1    
    84   42   43 am   BACKBONE|DICT|INTERRES
    85   42  106 1    
    86   43   44 2    
    87   43   45 1    
    88   45   46 1    
    89   45   49 1    
    90   45  107 1    
    91   46   47 1    
    92   46  108 1    
    93   46  109 1    
    94   47   48 1    
    95   48  110 1    
    96   48  111 1    
    97   49   50 am   BACKBONE|DICT|INTERRES
    98   49  112 1    
    99   50   51 2    
   100   50   52 1    
   101   52   53 1    
   102   52   54 1    
   103   52  113 1    
   104   53  114 1    
   105   53  115 1    
   106   53  116 1    
   107   54   55 am   BACKBONE|DICT|INTERRES
   108   54  117 1    
   109   55   56 2    
   110   55   57 1    
   111   57   58 1    
   112   57   59 1    
   113   57  118 1    
   114   58  119 1    
   115   58  120 1    
   116   58  121 1    
   117   59   60 am   BACKBONE|DICT|INTERRES
   118   59  122 1    
   119   60   61 2    
   120   60   62 1    
   121   62   63 1    
   122   62   64 1    
   123   62  123 1    
   124   63  124 1    
   125   63  125 1    
   126   63  126 1    
   127   64   65 am   BACKBONE|DICT|INTERRES
   128   64  127 1    
   129   65   66 2    
@<TRIPOS>SUBSTRUCTURE
     1 UNK         1 GROUP             0       ****    0 ROOT    
