@<TRIPOS>MOLECULE
3R135
127   129    1
SMALL
USER_CHARGES


@<TRIPOS>ATOM
      1 CA        -80.1330   24.7657  -70.4674 C.3       0 UNK        -0.1998 
      2 C         -81.4908   24.4903  -71.1101 C.2       0 UNK         0.4909 
      3 O         -82.0999   23.4718  -70.7881 O.2       0 UNK        -0.5240 
      4 N         -82.0305   25.3376  -72.0008 N.am      1 UNK        -0.4739 
      5 CA        -81.5084   26.5950  -72.5573 C.3       1 UNK         0.0864 
      6 C6        -81.1131   27.6335  -71.4706 C.3       11 UNK        -0.0881 
      7 S7        -81.2032   29.3644  -72.0475 S.3       11 UNK        -0.2682 
      8 C8        -79.6650   30.0715  -71.3693 C.3       11 UNK         0.0289 
      9 C9        -78.4265   29.5789  -72.1058 C.ar      11 UNK        -0.0687 
     10 C10       -77.6703   28.5228  -71.5902 C.ar      11 UNK        -0.0823 
     11 C11       -76.5423   28.0584  -72.2699 C.ar      11 UNK        -0.0830 
     12 C12       -76.1621   28.6674  -73.4688 C.ar      11 UNK        -0.1021 
     13 C13       -76.8869   29.7507  -73.9796 C.ar      11 UNK        -0.0753 
     14 C14       -78.0232   30.1944  -73.2944 C.ar      11 UNK        -0.0933 
     15 C15       -76.4710   30.4421  -75.2764 C.3       11 UNK         0.0166 
     16 S16       -74.6751   30.7154  -75.4341 S.3       11 UNK        -0.2615 
     17 C17       -74.3357   31.7303  -73.9576 C.3       11 UNK        -0.0865 
     18 CA        -72.8234   31.9918  -73.7465 C.3       10 UNK         0.0862 
     19 C         -72.6180   32.9566  -72.5450 C.2       10 UNK         0.5551 
     20 N         -72.5322   34.2550  -72.8004 N.am      10 UNK        -0.7319 
     21 O         -72.5844   32.5431  -71.3873 O.2       10 UNK        -0.5018 
     22 N         -72.0700   30.7337  -73.6143 N.am      10 UNK        -0.4509 
     23 C         -70.7437   30.6278  -73.4762 C.2       10 UNK         0.4899 
     24 O         -69.9700   31.5851  -73.5184 O.2       10 UNK        -0.4839 
     25 CA        -70.1655   29.2170  -73.2672 C.3       9 UNK         0.0222 
     26 CB        -70.4742   28.6866  -71.8520 C.3       9 UNK        -0.1966 
     27 N         -70.5305   28.2474  -74.3100 N.am      9 UNK        -0.4218 
     28 C         -71.7297   27.7114  -74.5751 C.2       9 UNK         0.5020 
     29 O         -72.7595   27.9639  -73.9454 O.2       9 UNK        -0.5274 
     30 CA        -71.7604   26.6697  -75.7051 C.3       8 UNK         0.0270 
     31 CB        -71.4860   25.2681  -75.1379 C.3       8 UNK        -0.1976 
     32 N         -73.0490   26.6676  -76.3995 N.am      8 UNK        -0.4313 
     33 C         -73.4332   27.6048  -77.2775 C.2       8 UNK         0.5041 
     34 O         -72.6913   28.5131  -77.6583 O.2       8 UNK        -0.5577 
     35 CA        -74.8781   27.5207  -77.8209 C.3       7 UNK         0.0284 
     36 CB        -75.0483   28.2296  -79.1803 C.3       7 UNK        -0.1958 
     37 N         -75.4292   26.1614  -77.8781 N.am      7 UNK        -0.4454 
     38 C         -74.9409   25.0972  -78.5345 C.2       7 UNK         0.5089 
     39 O         -73.9443   25.1256  -79.2583 O.2       7 UNK        -0.5125 
     40 CA        -75.6945   23.7707  -78.2983 C.3       6 UNK         0.0408 
     41 CB        -74.8943   22.5286  -78.7426 C.3       6 UNK        -0.1791 
     42 N         -76.1473   23.6406  -76.9065 N.am      6 UNK        -0.4762 
     43 C         -75.3828   23.6300  -75.8028 C.2       6 UNK         0.5007 
     44 O         -74.1536   23.6033  -75.8271 O.2       6 UNK        -0.5032 
     45 CA        -76.0940   23.7392  -74.4381 C.3       5 UNK         0.0783 
     46 C46       -75.9112   25.1683  -73.8739 C.3       11 UNK        -0.0857 
     47 S47       -76.4465   25.2975  -72.1397 S.3       11 UNK        -0.2512 
     48 C48       -75.7306   26.9090  -71.6932 C.3       11 UNK         0.0225 
     49 N         -77.5102   23.3648  -74.5059 N.am      5 UNK        -0.4615 
     50 C         -77.9628   22.1153  -74.6733 C.2       4 UNK         0.5053 
     51 O         -77.2377   21.1217  -74.7190 O.2       4 UNK        -0.5105 
     52 CA        -79.4791   21.9558  -74.8520 C.3       4 UNK         0.0263 
     53 CB        -80.1767   21.8672  -73.4865 C.3       4 UNK        -0.1981 
     54 N         -80.0411   23.0641  -75.6292 N.am      4 UNK        -0.4224 
     55 C         -79.9710   23.1513  -76.9662 C.2       3 UNK         0.4895 
     56 O         -79.4832   22.2773  -77.6826 O.2       3 UNK        -0.5091 
     57 CA        -80.5200   24.4292  -77.6245 C.3       3 UNK         0.0250 
     58 CB        -82.0025   24.2511  -77.9893 C.3       3 UNK        -0.1996 
     59 N         -80.3652   25.6276  -76.7979 N.am      3 UNK        -0.4254 
     60 C         -79.1927   26.2050  -76.5016 C.2       2 UNK         0.5004 
     61 O         -78.1024   25.8028  -76.9055 O.2       2 UNK        -0.5226 
     62 CA        -79.2382   27.4275  -75.5735 C.3       2 UNK         0.0269 
     63 CB        -79.4679   28.6987  -76.4066 C.3       2 UNK        -0.1926 
     64 N         -80.2439   27.3644  -74.5062 N.am      2 UNK        -0.4687 
     65 C         -80.4180   26.3651  -73.6297 C.2       1 UNK         0.5165 
     66 O         -79.7916   25.3030  -73.6780 O.2       1 UNK        -0.5079 
     67 H67       -79.6990   23.8372  -70.0976 H         1 UNK         0.0900 
     68 H68       -79.4160   25.1932  -71.1642 H         1 UNK         0.0900 
     69 H69       -80.2451   25.4402  -69.6194 H         1 UNK         0.0900 
     70 H70       -82.9229   25.0684  -72.3908 H         1 UNK         0.2959 
     71 H71       -82.3653   27.0048  -73.0954 H         1 UNK         0.1079 
     72 H72       -80.1238   27.4252  -71.0705 H         1 UNK         0.0837 
     73 H73       -81.7948   27.5568  -70.6220 H         1 UNK         0.0837 
     74 H74       -79.5974   29.8422  -70.3046 H         1 UNK         0.0685 
     75 H75       -79.7198   31.1588  -71.4404 H         1 UNK         0.0685 
     76 H76       -77.9584   28.0548  -70.6593 H         1 UNK         0.1434 
     77 H77       -75.2909   28.3072  -73.9974 H         1 UNK         0.1329 
     78 H78       -78.6013   31.0197  -73.6870 H         1 UNK         0.1335 
     79 H79       -76.8013   29.8360  -76.1189 H         1 UNK         0.0680 
     80 H80       -76.9729   31.4059  -75.3743 H         1 UNK         0.0680 
     81 H81       -74.7542   31.2369  -73.0783 H         1 UNK         0.1032 
     82 H82       -74.8775   32.6719  -74.0670 H         1 UNK         0.1032 
     83 H83       -72.4403   32.4867  -74.6412 H         1 UNK         0.0461 
     84 H84       -72.4156   34.8989  -72.0335 H         1 UNK         0.3453 
     85 H85       -72.5685   34.6041  -73.7457 H         1 UNK         0.3453 
     86 H86       -72.6132   29.8750  -73.6147 H         1 UNK         0.2984 
     87 H87       -69.0808   29.3145  -73.3376 H         1 UNK         0.0554 
     88 H88       -70.1038   29.3752  -71.0915 H         1 UNK         0.0847 
     89 H89       -69.9967   27.7227  -71.6767 H         1 UNK         0.0847 
     90 H90       -71.5442   28.5660  -71.6803 H         1 UNK         0.0847 
     91 H91       -69.7633   27.9722  -74.9083 H         1 UNK         0.3141 
     92 H92       -70.9794   26.9080  -76.4305 H         1 UNK         0.0743 
     93 H93       -70.5080   25.2230  -74.6572 H         1 UNK         0.0784 
     94 H94       -71.4948   24.5128  -75.9242 H         1 UNK         0.0784 
     95 H95       -72.2284   24.9833  -74.3910 H         1 UNK         0.0784 
     96 H96       -73.6940   25.9299  -76.1543 H         1 UNK         0.3213 
     97 H97       -75.4916   28.0553  -77.0953 H         1 UNK         0.0855 
     98 H98       -74.4202   27.7801  -79.9500 H         1 UNK         0.0814 
     99 H99       -74.7745   29.2831  -79.1095 H         1 UNK         0.0814 
    100 H100      -76.0824   28.1885  -79.5224 H         1 UNK         0.0814 
    101 H101      -76.3023   26.0183  -77.3723 H         1 UNK         0.3105 
    102 H102      -76.5980   23.8190  -78.9079 H         1 UNK         0.0547 
    103 H103      -75.4526   21.6111  -78.5580 H         1 UNK         0.0837 
    104 H104      -73.9393   22.4517  -78.2221 H         1 UNK         0.0837 
    105 H105      -74.6778   22.5669  -79.8107 H         1 UNK         0.0837 
    106 H106      -77.1455   23.7389  -76.7702 H         1 UNK         0.3020 
    107 H107      -75.5898   23.0367  -73.7703 H         1 UNK         0.1245 
    108 H108      -76.4682   25.8934  -74.4695 H         1 UNK         0.0781 
    109 H109      -74.8626   25.4712  -73.9189 H         1 UNK         0.0781 
    110 H110      -74.6926   26.9643  -72.0265 H         1 UNK         0.0836 
    111 H111      -75.7017   26.9912  -70.6058 H         1 UNK         0.0836 
    112 H112      -78.1824   24.1166  -74.3991 H         1 UNK         0.3022 
    113 H113      -79.6624   21.0211  -75.3868 H         1 UNK         0.0747 
    114 H114      -81.2588   21.7884  -73.5927 H         1 UNK         0.0793 
    115 H115      -79.8388   20.9892  -72.9347 H         1 UNK         0.0793 
    116 H116      -79.9614   22.7382  -72.8685 H         1 UNK         0.0793 
    117 H117      -80.3846   23.8574  -75.1009 H         1 UNK         0.3047 
    118 H118      -79.9581   24.5869  -78.5480 H         1 UNK         0.0822 
    119 H119      -82.3838   25.1145  -78.5349 H         1 UNK         0.0807 
    120 H120      -82.6237   24.1107  -77.1037 H         1 UNK         0.0807 
    121 H121      -82.1445   23.3783  -78.6285 H         1 UNK         0.0807 
    122 H122      -81.2065   26.0363  -76.4181 H         1 UNK         0.2946 
    123 H123      -78.2633   27.4965  -75.0890 H         1 UNK         0.1144 
    124 H124      -79.4019   29.5970  -75.7938 H         1 UNK         0.0793 
    125 H125      -80.4480   28.6953  -76.8851 H         1 UNK         0.0793 
    126 H126      -78.7221   28.7892  -77.1977 H         1 UNK         0.0793 
    127 H127      -80.7866   28.2056  -74.3654 H         1 UNK         0.2896 
@<TRIPOS>BOND
     1    1    2 1    
     2    1   67 1    
     3    1   68 1    
     4    1   69 1    
     5    2    3 2    
     6    2    4 am   BACKBONE|DICT|INTERRES
     7    4    5 1    
     8    4   70 1    
     9    5    6 1    
    10    5   65 1    
    11    5   71 1    
    12    6    7 1    
    13    6   72 1    
    14    6   73 1    
    15    7    8 1    
    16    8    9 1    
    17    8   74 1    
    18    8   75 1    
    19    9   10 ar   
    20    9   14 ar   
    21   10   11 ar   
    22   10   76 1    
    23   11   12 ar   
    24   11   48 1    
    25   12   13 ar   
    26   12   77 1    
    27   13   14 ar   
    28   13   15 1    
    29   14   78 1    
    30   15   16 1    
    31   15   79 1    
    32   15   80 1    
    33   16   17 1    
    34   17   18 1    
    35   17   81 1    
    36   17   82 1    
    37   18   19 1    
    38   18   22 1    
    39   18   83 1    
    40   19   20 am   BACKBONE|DICT|INTERRES
    41   19   21 2    
    42   20   84 1    
    43   20   85 1    
    44   22   23 am   BACKBONE|DICT|INTERRES
    45   22   86 1    
    46   23   24 2    
    47   23   25 1    
    48   25   26 1    
    49   25   27 1    
    50   25   87 1    
    51   26   88 1    
    52   26   89 1    
    53   26   90 1    
    54   27   28 am   BACKBONE|DICT|INTERRES
    55   27   91 1    
    56   28   29 2    
    57   28   30 1    
    58   30   31 1    
    59   30   32 1    
    60   30   92 1    
    61   31   93 1    
    62   31   94 1    
    63   31   95 1    
    64   32   33 am   BACKBONE|DICT|INTERRES
    65   32   96 1    
    66   33   34 2    
    67   33   35 1    
    68   35   36 1    
    69   35   37 1    
    70   35   97 1    
    71   36   98 1    
    72   36   99 1    
    73   36  100 1    
    74   37   38 am   BACKBONE|DICT|INTERRES
    75   37  101 1    
    76   38   39 2    
    77   38   40 1    
    78   40   41 1    
    79   40   42 1    
    80   40  102 1    
    81   41  103 1    
    82   41  104 1    
    83   41  105 1    
    84   42   43 am   BACKBONE|DICT|INTERRES
    85   42  106 1    
    86   43   44 2    
    87   43   45 1    
    88   45   46 1    
    89   45   49 1    
    90   45  107 1    
    91   46   47 1    
    92   46  108 1    
    93   46  109 1    
    94   47   48 1    
    95   48  110 1    
    96   48  111 1    
    97   49   50 am   BACKBONE|DICT|INTERRES
    98   49  112 1    
    99   50   51 2    
   100   50   52 1    
   101   52   53 1    
   102   52   54 1    
   103   52  113 1    
   104   53  114 1    
   105   53  115 1    
   106   53  116 1    
   107   54   55 am   BACKBONE|DICT|INTERRES
   108   54  117 1    
   109   55   56 2    
   110   55   57 1    
   111   57   58 1    
   112   57   59 1    
   113   57  118 1    
   114   58  119 1    
   115   58  120 1    
   116   58  121 1    
   117   59   60 am   BACKBONE|DICT|INTERRES
   118   59  122 1    
   119   60   61 2    
   120   60   62 1    
   121   62   63 1    
   122   62   64 1    
   123   62  123 1    
   124   63  124 1    
   125   63  125 1    
   126   63  126 1    
   127   64   65 am   BACKBONE|DICT|INTERRES
   128   64  127 1    
   129   65   66 2    
@<TRIPOS>SUBSTRUCTURE
     1 UNK         1 GROUP             0       ****    0 ROOT    
