@<TRIPOS>MOLECULE
3R135
127   129    1
SMALL
USER_CHARGES


@<TRIPOS>ATOM
      1 CA        -87.0423   27.9729  -72.3976 C.3       0 UNK        -0.1998 
      2 C         -85.8451   27.8118  -73.3230 C.2       0 UNK         0.4909 
      3 O         -86.0249   27.6245  -74.5273 O.2       0 UNK        -0.5240 
      4 N         -84.6279   27.8914  -72.7699 N.am      1 UNK        -0.4739 
      5 CA        -83.3643   27.6915  -73.4896 C.3       1 UNK         0.0864 
      6 C6        -82.2221   28.5441  -72.8715 C.3       11 UNK        -0.0881 
      7 S7        -81.0796   29.1840  -74.1438 S.3       11 UNK        -0.2682 
      8 C8        -80.0858   30.3589  -73.1708 C.3       11 UNK         0.0289 
      9 C9        -78.7259   29.7794  -72.8112 C.ar      11 UNK        -0.0687 
     10 C10       -78.6131   28.7936  -71.8265 C.ar      11 UNK        -0.0823 
     11 C11       -77.3649   28.2585  -71.4939 C.ar      11 UNK        -0.0830 
     12 C12       -76.2214   28.7352  -72.1430 C.ar      11 UNK        -0.1021 
     13 C13       -76.3193   29.7230  -73.1264 C.ar      11 UNK        -0.0753 
     14 C14       -77.5750   30.2387  -73.4583 C.ar      11 UNK        -0.0933 
     15 C15       -75.0776   30.2154  -73.8537 C.3       11 UNK         0.0166 
     16 S16       -74.2042   31.5049  -72.9118 S.3       11 UNK        -0.2615 
     17 C17       -72.9813   30.5216  -71.9753 C.3       11 UNK        -0.0865 
     18 CA        -71.5786   30.5536  -72.6343 C.3       10 UNK         0.0862 
     19 C         -70.5345   29.8250  -71.7491 C.2       10 UNK         0.5551 
     20 N         -69.7135   30.5647  -71.0168 N.am      10 UNK        -0.7319 
     21 O         -70.4978   28.5980  -71.6864 O.2       10 UNK        -0.5018 
     22 N         -71.6141   29.9887  -73.9884 N.am      10 UNK        -0.4509 
     23 C         -70.7142   30.2289  -74.9473 C.2       10 UNK         0.4899 
     24 O         -69.7528   30.9884  -74.8146 O.2       10 UNK        -0.4839 
     25 CA        -70.9573   29.5032  -76.2847 C.3       9 UNK         0.0222 
     26 CB        -69.7862   29.6497  -77.2800 C.3       9 UNK        -0.1966 
     27 N         -71.3266   28.0935  -76.1048 N.am      9 UNK        -0.4218 
     28 C         -70.5791   27.1220  -75.5509 C.2       9 UNK         0.5020 
     29 O         -69.4401   27.2954  -75.1153 O.2       9 UNK        -0.5274 
     30 CA        -71.1902   25.7089  -75.4630 C.3       8 UNK         0.0270 
     31 CB        -71.5058   25.3453  -74.0022 C.3       8 UNK        -0.1976 
     32 N         -72.3947   25.5461  -76.2832 N.am      8 UNK        -0.4313 
     33 C         -72.3819   25.4384  -77.6207 C.2       8 UNK         0.5041 
     34 O         -71.3451   25.3796  -78.2833 O.2       8 UNK        -0.5577 
     35 CA        -73.7320   25.4123  -78.3626 C.3       7 UNK         0.0284 
     36 CB        -74.0436   23.9864  -78.8456 C.3       7 UNK        -0.1958 
     37 N         -74.8721   25.9245  -77.5947 N.am      7 UNK        -0.4454 
     38 C         -75.0015   27.1744  -77.1261 C.2       7 UNK         0.5089 
     39 O         -74.1542   28.0556  -77.2798 O.2       7 UNK        -0.5125 
     40 CA        -76.2500   27.4623  -76.2725 C.3       6 UNK         0.0408 
     41 CB        -77.4824   27.7137  -77.1534 C.3       6 UNK        -0.1791 
     42 N         -76.5386   26.3968  -75.3081 N.am      6 UNK        -0.4762 
     43 C         -75.6956   25.9895  -74.3460 C.2       6 UNK         0.5007 
     44 O         -74.5896   26.4945  -74.1542 O.2       6 UNK        -0.5032 
     45 CA        -76.1223   24.7642  -73.5163 C.3       5 UNK         0.0783 
     46 C46       -77.1032   25.1200  -72.3724 C.3       11 UNK        -0.0857 
     47 S47       -76.2283   25.7579  -70.9047 S.3       11 UNK        -0.2512 
     48 C48       -77.2644   27.1795  -70.4208 C.3       11 UNK         0.0225 
     49 N         -76.6600   23.7206  -74.3894 N.am      5 UNK        -0.4615 
     50 C         -75.9080   22.9221  -75.1590 C.2       4 UNK         0.5053 
     51 O         -74.6774   22.9371  -75.1648 O.2       4 UNK        -0.5105 
     52 CA        -76.6530   21.9497  -76.0901 C.3       4 UNK         0.0263 
     53 CB        -76.8855   20.6036  -75.3858 C.3       4 UNK        -0.1981 
     54 N         -77.9341   22.4765  -76.5690 N.am      4 UNK        -0.4224 
     55 C         -78.0589   23.5266  -77.3928 C.2       3 UNK         0.4895 
     56 O         -77.1069   24.1527  -77.8551 O.2       3 UNK        -0.5091 
     57 CA        -79.4885   23.9865  -77.7168 C.3       3 UNK         0.0250 
     58 CB        -80.0784   23.1530  -78.8655 C.3       3 UNK        -0.1996 
     59 N         -80.3927   23.9503  -76.5620 N.am      3 UNK        -0.4254 
     60 C         -80.2215   24.6641  -75.4411 C.2       2 UNK         0.5004 
     61 O         -79.2484   25.3904  -75.2267 O.2       2 UNK        -0.5226 
     62 CA        -81.3101   24.5527  -74.3741 C.3       2 UNK         0.0269 
     63 CB        -80.7583   23.9359  -73.0750 C.3       2 UNK        -0.1926 
     64 N         -81.8201   25.8970  -74.1289 N.am      2 UNK        -0.4687 
     65 C         -83.0049   26.1897  -73.5845 C.2       1 UNK         0.5165 
     66 O         -83.7865   25.3284  -73.1700 O.2       1 UNK        -0.5079 
     67 H67       -87.6577   27.0740  -72.4215 H         1 UNK         0.0900 
     68 H68       -86.7397   28.1491  -71.3656 H         1 UNK         0.0900 
     69 H69       -87.6550   28.8146  -72.7194 H         1 UNK         0.0900 
     70 H70       -84.5480   28.0056  -71.7694 H         1 UNK         0.2959 
     71 H71       -83.5218   28.0273  -74.5175 H         1 UNK         0.1079 
     72 H72       -81.6687   27.9936  -72.1086 H         1 UNK         0.0837 
     73 H73       -82.6424   29.4132  -72.3621 H         1 UNK         0.0837 
     74 H74       -79.9653   31.2722  -73.7554 H         1 UNK         0.0685 
     75 H75       -80.6133   30.6525  -72.2624 H         1 UNK         0.0685 
     76 H76       -79.5011   28.4408  -71.3218 H         1 UNK         0.1434 
     77 H77       -75.2561   28.3189  -71.8944 H         1 UNK         0.1329 
     78 H78       -77.6558   30.9996  -74.2225 H         1 UNK         0.1335 
     79 H79       -75.3542   30.6287  -74.8249 H         1 UNK         0.0680 
     80 H80       -74.4132   29.3769  -74.0659 H         1 UNK         0.0680 
     81 H81       -72.9324   30.9375  -70.9670 H         1 UNK         0.1032 
     82 H82       -73.3280   29.4947  -71.8567 H         1 UNK         0.1032 
     83 H83       -71.2807   31.6011  -72.7203 H         1 UNK         0.0461 
     84 H84       -69.7433   31.5719  -71.0570 H         1 UNK         0.3453 
     85 H85       -69.0399   30.1072  -70.4224 H         1 UNK         0.3453 
     86 H86       -72.3406   29.3139  -74.1695 H         1 UNK         0.2984 
     87 H87       -71.8273   29.9841  -76.7346 H         1 UNK         0.0554 
     88 H88       -69.6030   30.6990  -77.5146 H         1 UNK         0.0847 
     89 H89       -69.9986   29.1406  -78.2200 H         1 UNK         0.0847 
     90 H90       -68.8579   29.2413  -76.8795 H         1 UNK         0.0847 
     91 H91       -72.2547   27.8491  -76.4367 H         1 UNK         0.3141 
     92 H92       -70.4377   25.0055  -75.8260 H         1 UNK         0.0743 
     93 H93       -70.5891   25.2830  -73.4146 H         1 UNK         0.0784 
     94 H94       -72.1371   26.0945  -73.5243 H         1 UNK         0.0784 
     95 H95       -72.0075   24.3801  -73.9266 H         1 UNK         0.0784 
     96 H96       -73.2844   25.5991  -75.8016 H         1 UNK         0.3213 
     97 H97       -73.6216   26.0518  -79.2408 H         1 UNK         0.0855 
     98 H98       -74.2154   23.3085  -78.0088 H         1 UNK         0.0814 
     99 H99       -73.2182   23.5798  -79.4316 H         1 UNK         0.0814 
    100 H100      -74.9285   23.9668  -79.4818 H         1 UNK         0.0814 
    101 H101      -75.6491   25.2798  -77.4622 H         1 UNK         0.3105 
    102 H102      -76.0585   28.3717  -75.7044 H         1 UNK         0.0547 
    103 H103      -78.3511   27.9787  -76.5498 H         1 UNK         0.0837 
    104 H104      -77.3046   28.5366  -77.8467 H         1 UNK         0.0837 
    105 H105      -77.7421   26.8368  -77.7462 H         1 UNK         0.0837 
    106 H106      -77.4526   25.9537  -75.3757 H         1 UNK         0.3020 
    107 H107      -75.2129   24.3605  -73.0632 H         1 UNK         0.1245 
    108 H108      -77.6365   24.2259  -72.0460 H         1 UNK         0.0781 
    109 H109      -77.8709   25.8195  -72.7092 H         1 UNK         0.0781 
    110 H110      -76.8467   27.6253  -69.5173 H         1 UNK         0.0836 
    111 H111      -78.2541   26.8075  -70.1509 H         1 UNK         0.0836 
    112 H112      -77.6640   23.6870  -74.4870 H         1 UNK         0.3022 
    113 H113      -76.0161   21.7748  -76.9599 H         1 UNK         0.0747 
    114 H114      -77.3392   19.8761  -76.0593 H         1 UNK         0.0793 
    115 H115      -75.9427   20.1773  -75.0397 H         1 UNK         0.0793 
    116 H116      -77.5347   20.7078  -74.5155 H         1 UNK         0.0793 
    117 H117      -78.7723   22.0204  -76.2392 H         1 UNK         0.3047 
    118 H118      -79.4272   25.0246  -78.0500 H         1 UNK         0.0822 
    119 H119      -79.4273   23.1802  -79.7408 H         1 UNK         0.0807 
    120 H120      -81.0500   23.5372  -79.1766 H         1 UNK         0.0807 
    121 H121      -80.2044   22.1063  -78.5859 H         1 UNK         0.0807 
    122 H122      -81.2205   23.3792  -76.6573 H         1 UNK         0.2946 
    123 H123      -82.1202   23.9238  -74.7509 H         1 UNK         0.1144 
    124 H124      -80.2792   22.9749  -73.2661 H         1 UNK         0.0793 
    125 H125      -81.5538   23.7610  -72.3506 H         1 UNK         0.0793 
    126 H126      -80.0213   24.5863  -72.6045 H         1 UNK         0.0793 
    127 H127      -81.2153   26.6499  -74.4382 H         1 UNK         0.2896 
@<TRIPOS>BOND
     1    1    2 1    
     2    1   67 1    
     3    1   68 1    
     4    1   69 1    
     5    2    3 2    
     6    2    4 am   BACKBONE|DICT|INTERRES
     7    4    5 1    
     8    4   70 1    
     9    5    6 1    
    10    5   65 1    
    11    5   71 1    
    12    6    7 1    
    13    6   72 1    
    14    6   73 1    
    15    7    8 1    
    16    8    9 1    
    17    8   74 1    
    18    8   75 1    
    19    9   10 ar   
    20    9   14 ar   
    21   10   11 ar   
    22   10   76 1    
    23   11   12 ar   
    24   11   48 1    
    25   12   13 ar   
    26   12   77 1    
    27   13   14 ar   
    28   13   15 1    
    29   14   78 1    
    30   15   16 1    
    31   15   79 1    
    32   15   80 1    
    33   16   17 1    
    34   17   18 1    
    35   17   81 1    
    36   17   82 1    
    37   18   19 1    
    38   18   22 1    
    39   18   83 1    
    40   19   20 am   BACKBONE|DICT|INTERRES
    41   19   21 2    
    42   20   84 1    
    43   20   85 1    
    44   22   23 am   BACKBONE|DICT|INTERRES
    45   22   86 1    
    46   23   24 2    
    47   23   25 1    
    48   25   26 1    
    49   25   27 1    
    50   25   87 1    
    51   26   88 1    
    52   26   89 1    
    53   26   90 1    
    54   27   28 am   BACKBONE|DICT|INTERRES
    55   27   91 1    
    56   28   29 2    
    57   28   30 1    
    58   30   31 1    
    59   30   32 1    
    60   30   92 1    
    61   31   93 1    
    62   31   94 1    
    63   31   95 1    
    64   32   33 am   BACKBONE|DICT|INTERRES
    65   32   96 1    
    66   33   34 2    
    67   33   35 1    
    68   35   36 1    
    69   35   37 1    
    70   35   97 1    
    71   36   98 1    
    72   36   99 1    
    73   36  100 1    
    74   37   38 am   BACKBONE|DICT|INTERRES
    75   37  101 1    
    76   38   39 2    
    77   38   40 1    
    78   40   41 1    
    79   40   42 1    
    80   40  102 1    
    81   41  103 1    
    82   41  104 1    
    83   41  105 1    
    84   42   43 am   BACKBONE|DICT|INTERRES
    85   42  106 1    
    86   43   44 2    
    87   43   45 1    
    88   45   46 1    
    89   45   49 1    
    90   45  107 1    
    91   46   47 1    
    92   46  108 1    
    93   46  109 1    
    94   47   48 1    
    95   48  110 1    
    96   48  111 1    
    97   49   50 am   BACKBONE|DICT|INTERRES
    98   49  112 1    
    99   50   51 2    
   100   50   52 1    
   101   52   53 1    
   102   52   54 1    
   103   52  113 1    
   104   53  114 1    
   105   53  115 1    
   106   53  116 1    
   107   54   55 am   BACKBONE|DICT|INTERRES
   108   54  117 1    
   109   55   56 2    
   110   55   57 1    
   111   57   58 1    
   112   57   59 1    
   113   57  118 1    
   114   58  119 1    
   115   58  120 1    
   116   58  121 1    
   117   59   60 am   BACKBONE|DICT|INTERRES
   118   59  122 1    
   119   60   61 2    
   120   60   62 1    
   121   62   63 1    
   122   62   64 1    
   123   62  123 1    
   124   63  124 1    
   125   63  125 1    
   126   63  126 1    
   127   64   65 am   BACKBONE|DICT|INTERRES
   128   64  127 1    
   129   65   66 2    
@<TRIPOS>SUBSTRUCTURE
     1 UNK         1 GROUP             0       ****    0 ROOT    
