@<TRIPOS>MOLECULE
3R135
127   129    1
SMALL
USER_CHARGES


@<TRIPOS>ATOM
      1 CA        -74.6221   25.6146  -70.9455 C.3       0 UNK        -0.1998 
      2 C         -76.1205   25.7205  -71.1792 C.2       0 UNK         0.4909 
      3 O         -76.5921   25.3818  -72.2655 O.2       0 UNK        -0.5240 
      4 N         -76.8765   26.1641  -70.1629 N.am      1 UNK        -0.4739 
      5 CA        -78.3404   26.3383  -70.1329 C.3       1 UNK         0.0864 
      6 C6        -78.8501   27.2926  -71.2487 C.3       11 UNK        -0.0881 
      7 S7        -80.5639   27.8765  -71.0034 S.3       11 UNK        -0.2682 
      8 C8        -80.4431   29.6380  -71.4569 C.3       11 UNK         0.0289 
      9 C9        -79.9676   29.8278  -72.8911 C.ar      11 UNK        -0.0687 
     10 C10       -80.7846   29.4567  -73.9633 C.ar      11 UNK        -0.0823 
     11 C11       -80.3380   29.6054  -75.2803 C.ar      11 UNK        -0.0830 
     12 C12       -79.0686   30.1376  -75.5206 C.ar      11 UNK        -0.1021 
     13 C13       -78.2314   30.4812  -74.4568 C.ar      11 UNK        -0.0753 
     14 C14       -78.6981   30.3536  -73.1452 C.ar      11 UNK        -0.0933 
     15 C15       -76.8114   30.9544  -74.7284 C.3       11 UNK         0.0166 
     16 S16       -75.6809   29.5488  -75.0040 S.3       11 UNK        -0.2615 
     17 C17       -75.5205   28.8705  -73.3161 C.3       11 UNK        -0.0865 
     18 CA        -74.3076   29.4782  -72.5619 C.3       10 UNK         0.0862 
     19 C         -74.4433   29.3312  -71.0178 C.2       10 UNK         0.5551 
     20 N         -73.4433   28.8270  -70.3049 N.am      10 UNK        -0.7319 
     21 O         -75.4736   29.6904  -70.4543 O.2       10 UNK        -0.5018 
     22 N         -73.0505   28.9477  -73.1072 N.am      10 UNK        -0.4509 
     23 C         -71.8993   29.6139  -73.2482 C.2       10 UNK         0.4899 
     24 O         -71.7449   30.7887  -72.9133 O.2       10 UNK        -0.4839 
     25 CA        -70.7051   28.8374  -73.8496 C.3       9 UNK         0.0222 
     26 CB        -69.5290   28.7981  -72.8583 C.3       9 UNK        -0.1966 
     27 N         -71.0251   27.4612  -74.2577 N.am      9 UNK        -0.4218 
     28 C         -71.7778   27.1254  -75.3143 C.2       9 UNK         0.5020 
     29 O         -72.2358   27.9476  -76.1116 O.2       9 UNK        -0.5274 
     30 CA        -72.1170   25.6304  -75.4520 C.3       8 UNK         0.0270 
     31 CB        -72.9697   25.1466  -74.2646 C.3       8 UNK        -0.1976 
     32 N         -72.8734   25.4042  -76.6795 N.am      8 UNK        -0.4313 
     33 C         -72.3396   25.0939  -77.8672 C.2       8 UNK         0.5041 
     34 O         -71.1627   24.7709  -78.0353 O.2       8 UNK        -0.5577 
     35 CA        -73.2764   25.2064  -79.0781 C.3       7 UNK         0.0284 
     36 CB        -74.1728   23.9636  -79.2039 C.3       7 UNK        -0.1958 
     37 N         -74.1061   26.4047  -78.9537 N.am      7 UNK        -0.4454 
     38 C         -73.7574   27.6254  -79.3806 C.2       7 UNK         0.5089 
     39 O         -72.7529   27.8427  -80.0605 O.2       7 UNK        -0.5125 
     40 CA        -74.6511   28.8153  -78.9651 C.3       6 UNK         0.0408 
     41 CB        -74.9851   29.7327  -80.1598 C.3       6 UNK        -0.1791 
     42 N         -75.8653   28.4483  -78.2216 N.am      6 UNK        -0.4762 
     43 C         -76.9231   27.7525  -78.6650 C.2       6 UNK         0.5007 
     44 O         -77.0396   27.3274  -79.8155 O.2       6 UNK        -0.5032 
     45 CA        -78.0146   27.4324  -77.6261 C.3       5 UNK         0.0783 
     46 C46       -79.4179   27.8032  -78.1740 C.3       11 UNK        -0.0857 
     47 S47       -80.7795   27.4853  -76.9963 S.3       11 UNK        -0.2512 
     48 C48       -81.2170   29.1644  -76.4396 C.3       11 UNK         0.0225 
     49 N         -77.9549   26.0378  -77.1845 N.am      5 UNK        -0.4615 
     50 C         -76.9111   25.3913  -76.6488 C.2       4 UNK         0.5053 
     51 O         -75.7721   25.8586  -76.5693 O.2       4 UNK        -0.5105 
     52 CA        -77.2132   23.9920  -76.0789 C.3       4 UNK         0.0263 
     53 CB        -76.0255   23.3957  -75.3019 C.3       4 UNK        -0.1981 
     54 N         -78.3812   24.0343  -75.1939 N.am      4 UNK        -0.4224 
     55 C         -79.6590   23.9322  -75.5889 C.2       3 UNK         0.4895 
     56 O         -79.9831   23.7566  -76.7644 O.2       3 UNK        -0.5091 
     57 CA        -80.7535   24.1161  -74.5167 C.3       3 UNK         0.0250 
     58 CB        -82.0402   23.3260  -74.8377 C.3       3 UNK        -0.1996 
     59 N         -80.2944   23.8538  -73.1463 N.am      3 UNK        -0.4254 
     60 C         -79.8649   22.6910  -72.6285 C.2       2 UNK         0.5004 
     61 O         -79.8486   21.6265  -73.2477 O.2       2 UNK        -0.5226 
     62 CA        -79.3249   22.7483  -71.1872 C.3       2 UNK         0.0269 
     63 CB        -78.2991   21.6352  -70.9022 C.3       2 UNK        -0.1926 
     64 N         -78.6905   24.0446  -70.9451 N.am      2 UNK        -0.4687 
     65 C         -79.1125   24.9969  -70.1080 C.2       1 UNK         0.5165 
     66 O         -80.0628   24.8509  -69.3384 O.2       1 UNK        -0.5079 
     67 H67       -74.2898   24.5898  -71.1088 H         1 UNK         0.0900 
     68 H68       -74.3452   25.9048  -69.9323 H         1 UNK         0.0900 
     69 H69       -74.0886   26.2597  -71.6407 H         1 UNK         0.0900 
     70 H70       -76.4160   26.3958  -69.2932 H         1 UNK         0.2959 
     71 H71       -78.5466   26.8208  -69.1757 H         1 UNK         0.1079 
     72 H72       -78.1951   28.1636  -71.2854 H         1 UNK         0.0837 
     73 H73       -78.7824   26.8293  -72.2344 H         1 UNK         0.0837 
     74 H74       -81.4233   30.1020  -71.3389 H         1 UNK         0.0685 
     75 H75       -79.7781   30.1428  -70.7542 H         1 UNK         0.0685 
     76 H76       -81.7609   29.0341  -73.7679 H         1 UNK         0.1434 
     77 H77       -78.7155   30.2517  -76.5358 H         1 UNK         0.1329 
     78 H78       -78.0588   30.6324  -72.3185 H         1 UNK         0.1335 
     79 H79       -76.8009   31.5938  -75.6123 H         1 UNK         0.0680 
     80 H80       -76.4422   31.5665  -73.9039 H         1 UNK         0.0680 
     81 H81       -75.4249   27.7863  -73.3917 H         1 UNK         0.1032 
     82 H82       -76.4501   29.0315  -72.7760 H         1 UNK         0.1032 
     83 H83       -74.3237   30.5562  -72.7326 H         1 UNK         0.0461 
     84 H84       -72.5808   28.5613  -70.7505 H         1 UNK         0.3453 
     85 H85       -73.5391   28.7549  -69.3046 H         1 UNK         0.3453 
     86 H86       -73.0786   27.9938  -73.4288 H         1 UNK         0.2984 
     87 H87       -70.3826   29.3871  -74.7362 H         1 UNK         0.0554 
     88 H88       -68.6556   28.3142  -73.2961 H         1 UNK         0.0847 
     89 H89       -69.7873   28.2633  -71.9435 H         1 UNK         0.0847 
     90 H90       -69.2239   29.8052  -72.5703 H         1 UNK         0.0847 
     91 H91       -70.6805   26.7252  -73.6573 H         1 UNK         0.3141 
     92 H92       -71.1836   25.0639  -75.4747 H         1 UNK         0.0743 
     93 H93       -72.4422   25.2584  -73.3170 H         1 UNK         0.0784 
     94 H94       -73.2124   24.0887  -74.3645 H         1 UNK         0.0784 
     95 H95       -73.9091   25.6968  -74.1902 H         1 UNK         0.0784 
     96 H96       -73.8499   25.6860  -76.6497 H         1 UNK         0.3213 
     97 H97       -72.6632   25.2760  -79.9794 H         1 UNK         0.0855 
     98 H98       -73.5705   23.0614  -79.3186 H         1 UNK         0.0814 
     99 H99       -74.8227   24.0327  -80.0764 H         1 UNK         0.0814 
    100 H100      -74.8047   23.8234  -78.3274 H         1 UNK         0.0814 
    101 H101      -74.9224   26.3348  -78.3567 H         1 UNK         0.3105 
    102 H102      -74.0512   29.3982  -78.2644 H         1 UNK         0.0547 
    103 H103      -75.5261   29.2013  -80.9429 H         1 UNK         0.0837 
    104 H104      -74.0762   30.1317  -80.6116 H         1 UNK         0.0837 
    105 H105      -75.5904   30.5844  -79.8500 H         1 UNK         0.0837 
    106 H106      -75.8387   28.6926  -77.2379 H         1 UNK         0.3020 
    107 H107      -77.8255   28.0353  -76.7375 H         1 UNK         0.1245 
    108 H108      -79.6347   27.2261  -79.0752 H         1 UNK         0.0781 
    109 H109      -79.4426   28.8497  -78.4826 H         1 UNK         0.0781 
    110 H110      -82.2641   29.1648  -76.1326 H         1 UNK         0.0836 
    111 H111      -81.1488   29.8742  -77.2651 H         1 UNK         0.0836 
    112 H112      -78.8349   25.5379  -77.2230 H         1 UNK         0.3022 
    113 H113      -77.4201   23.3348  -76.9262 H         1 UNK         0.0747 
    114 H114      -76.2548   22.3947  -74.9362 H         1 UNK         0.0793 
    115 H115      -75.1402   23.3134  -75.9329 H         1 UNK         0.0793 
    116 H116      -75.7603   24.0115  -74.4424 H         1 UNK         0.0793 
    117 H117      -78.1924   24.2348  -74.2220 H         1 UNK         0.3047 
    118 H118      -81.0105   25.1764  -74.5447 H         1 UNK         0.0822 
    119 H119      -82.8028   23.4815  -74.0747 H         1 UNK         0.0807 
    120 H120      -81.8513   22.2547  -74.9117 H         1 UNK         0.0807 
    121 H121      -82.4676   23.6451  -75.7892 H         1 UNK         0.0807 
    122 H122      -80.2638   24.6613  -72.5397 H         1 UNK         0.2946 
    123 H123      -80.1803   22.6087  -70.5223 H         1 UNK         0.1144 
    124 H124      -78.7474   20.6475  -71.0174 H         1 UNK         0.0793 
    125 H125      -77.9200   21.6991  -69.8821 H         1 UNK         0.0793 
    126 H126      -77.4467   21.6904  -71.5806 H         1 UNK         0.0793 
    127 H127      -77.8985   24.2847  -71.5383 H         1 UNK         0.2896 
@<TRIPOS>BOND
     1    1    2 1    
     2    1   67 1    
     3    1   68 1    
     4    1   69 1    
     5    2    3 2    
     6    2    4 am   BACKBONE|DICT|INTERRES
     7    4    5 1    
     8    4   70 1    
     9    5    6 1    
    10    5   65 1    
    11    5   71 1    
    12    6    7 1    
    13    6   72 1    
    14    6   73 1    
    15    7    8 1    
    16    8    9 1    
    17    8   74 1    
    18    8   75 1    
    19    9   10 ar   
    20    9   14 ar   
    21   10   11 ar   
    22   10   76 1    
    23   11   12 ar   
    24   11   48 1    
    25   12   13 ar   
    26   12   77 1    
    27   13   14 ar   
    28   13   15 1    
    29   14   78 1    
    30   15   16 1    
    31   15   79 1    
    32   15   80 1    
    33   16   17 1    
    34   17   18 1    
    35   17   81 1    
    36   17   82 1    
    37   18   19 1    
    38   18   22 1    
    39   18   83 1    
    40   19   20 am   BACKBONE|DICT|INTERRES
    41   19   21 2    
    42   20   84 1    
    43   20   85 1    
    44   22   23 am   BACKBONE|DICT|INTERRES
    45   22   86 1    
    46   23   24 2    
    47   23   25 1    
    48   25   26 1    
    49   25   27 1    
    50   25   87 1    
    51   26   88 1    
    52   26   89 1    
    53   26   90 1    
    54   27   28 am   BACKBONE|DICT|INTERRES
    55   27   91 1    
    56   28   29 2    
    57   28   30 1    
    58   30   31 1    
    59   30   32 1    
    60   30   92 1    
    61   31   93 1    
    62   31   94 1    
    63   31   95 1    
    64   32   33 am   BACKBONE|DICT|INTERRES
    65   32   96 1    
    66   33   34 2    
    67   33   35 1    
    68   35   36 1    
    69   35   37 1    
    70   35   97 1    
    71   36   98 1    
    72   36   99 1    
    73   36  100 1    
    74   37   38 am   BACKBONE|DICT|INTERRES
    75   37  101 1    
    76   38   39 2    
    77   38   40 1    
    78   40   41 1    
    79   40   42 1    
    80   40  102 1    
    81   41  103 1    
    82   41  104 1    
    83   41  105 1    
    84   42   43 am   BACKBONE|DICT|INTERRES
    85   42  106 1    
    86   43   44 2    
    87   43   45 1    
    88   45   46 1    
    89   45   49 1    
    90   45  107 1    
    91   46   47 1    
    92   46  108 1    
    93   46  109 1    
    94   47   48 1    
    95   48  110 1    
    96   48  111 1    
    97   49   50 am   BACKBONE|DICT|INTERRES
    98   49  112 1    
    99   50   51 2    
   100   50   52 1    
   101   52   53 1    
   102   52   54 1    
   103   52  113 1    
   104   53  114 1    
   105   53  115 1    
   106   53  116 1    
   107   54   55 am   BACKBONE|DICT|INTERRES
   108   54  117 1    
   109   55   56 2    
   110   55   57 1    
   111   57   58 1    
   112   57   59 1    
   113   57  118 1    
   114   58  119 1    
   115   58  120 1    
   116   58  121 1    
   117   59   60 am   BACKBONE|DICT|INTERRES
   118   59  122 1    
   119   60   61 2    
   120   60   62 1    
   121   62   63 1    
   122   62   64 1    
   123   62  123 1    
   124   63  124 1    
   125   63  125 1    
   126   63  126 1    
   127   64   65 am   BACKBONE|DICT|INTERRES
   128   64  127 1    
   129   65   66 2    
@<TRIPOS>SUBSTRUCTURE
     1 UNK         1 GROUP             0       ****    0 ROOT    
