@<TRIPOS>MOLECULE
3R135
127   129    1
SMALL
USER_CHARGES


@<TRIPOS>ATOM
      1 CA        -75.5872   22.9066  -73.8628 C.3       0 UNK        -0.1998 
      2 C         -76.9213   22.7380  -73.1569 C.2       0 UNK         0.4909 
      3 O         -77.5125   21.6596  -73.2100 O.2       0 UNK        -0.5240 
      4 N         -77.3941   23.8053  -72.5018 N.am      1 UNK        -0.4739 
      5 CA        -78.6567   23.9081  -71.7613 C.3       1 UNK         0.0864 
      6 C6        -78.7790   25.2759  -71.0319 C.3       11 UNK        -0.0881 
      7 S7        -78.3371   26.7333  -72.0469 S.3       11 UNK        -0.2682 
      8 C8        -78.5102   28.0597  -70.8140 C.3       11 UNK         0.0289 
      9 C9        -78.2224   29.4283  -71.4156 C.ar      11 UNK        -0.0687 
     10 C10       -79.0467   29.9307  -72.4268 C.ar      11 UNK        -0.0823 
     11 C11       -78.8025   31.1876  -72.9888 C.ar      11 UNK        -0.0830 
     12 C12       -77.7396   31.9561  -72.5084 C.ar      11 UNK        -0.1021 
     13 C13       -76.9228   31.4787  -71.4799 C.ar      11 UNK        -0.0753 
     14 C14       -77.1594   30.2076  -70.9448 C.ar      11 UNK        -0.0933 
     15 C15       -75.8177   32.3667  -70.9278 C.3       11 UNK         0.0166 
     16 S16       -74.3111   32.2826  -71.9409 S.3       11 UNK        -0.2615 
     17 C17       -73.4607   30.8721  -71.1627 C.3       11 UNK        -0.0865 
     18 CA        -72.1179   30.5436  -71.8612 C.3       10 UNK         0.0862 
     19 C         -71.3193   29.4981  -71.0372 C.2       10 UNK         0.5551 
     20 N         -70.1990   29.8900  -70.4464 N.am      10 UNK        -0.7319 
     21 O         -71.7390   28.3525  -70.8894 O.2       10 UNK        -0.5018 
     22 N         -72.3388   30.0921  -73.2403 N.am      10 UNK        -0.4509 
     23 C         -71.3856   29.9235  -74.1650 C.2       10 UNK         0.4899 
     24 O         -70.2079   30.2495  -74.0052 O.2       10 UNK        -0.4839 
     25 CA        -71.8411   29.2743  -75.4886 C.3       9 UNK         0.0222 
     26 CB        -70.6662   28.8051  -76.3721 C.3       9 UNK        -0.1966 
     27 N         -72.8020   28.1834  -75.2802 N.am      9 UNK        -0.4218 
     28 C         -72.6189   27.0706  -74.5502 C.2       9 UNK         0.5020 
     29 O         -71.5683   26.7736  -73.9805 O.2       9 UNK        -0.5274 
     30 CA        -73.8217   26.1208  -74.4461 C.3       8 UNK         0.0270 
     31 CB        -74.9132   26.7091  -73.5363 C.3       8 UNK        -0.1976 
     32 N         -74.3884   25.7986  -75.7557 N.am      8 UNK        -0.4313 
     33 C         -73.7575   25.0847  -76.7001 C.2       8 UNK         0.5041 
     34 O         -72.6569   24.5543  -76.5459 O.2       8 UNK        -0.5577 
     35 CA        -74.4747   24.9394  -78.0490 C.3       7 UNK         0.0284 
     36 CB        -75.4447   23.7509  -78.0170 C.3       7 UNK        -0.1958 
     37 N         -75.1961   26.1618  -78.4055 N.am      7 UNK        -0.4454 
     38 C         -74.6051   27.2518  -78.9149 C.2       7 UNK         0.5089 
     39 O         -73.4122   27.3091  -79.2142 O.2       7 UNK        -0.5125 
     40 CA        -75.4867   28.4946  -79.1213 C.3       6 UNK         0.0408 
     41 CB        -76.0808   28.5010  -80.5386 C.3       6 UNK        -0.1791 
     42 N         -76.5688   28.6160  -78.1418 N.am      6 UNK        -0.4762 
     43 C         -76.3991   28.8734  -76.8363 C.2       6 UNK         0.5007 
     44 O         -75.2999   28.9997  -76.2966 O.2       6 UNK        -0.5032 
     45 CA        -77.6840   28.9864  -75.9952 C.3       5 UNK         0.0783 
     46 C46       -78.2969   30.4047  -76.1649 C.3       11 UNK        -0.0857 
     47 S47       -79.9730   30.5740  -75.4534 S.3       11 UNK        -0.2512 
     48 C48       -79.7059   31.7427  -74.0826 C.3       11 UNK         0.0225 
     49 N         -78.6616   27.9345  -76.2941 N.am      5 UNK        -0.4615 
     50 C         -78.4791   26.6083  -76.2949 C.2       4 UNK         0.5053 
     51 O         -77.3849   26.0538  -76.1563 O.2       4 UNK        -0.5105 
     52 CA        -79.7766   25.8015  -76.4633 C.3       4 UNK         0.0263 
     53 CB        -80.5111   26.1301  -77.7832 C.3       4 UNK        -0.1981 
     54 N         -79.6109   24.3591  -76.2607 N.am      4 UNK        -0.4224 
     55 C         -79.1679   23.4260  -77.1182 C.2       3 UNK         0.4895 
     56 O         -78.7873   23.6683  -78.2638 O.2       3 UNK        -0.5091 
     57 CA        -79.1696   21.9559  -76.6400 C.3       3 UNK         0.0250 
     58 CB        -77.7635   21.3382  -76.7144 C.3       3 UNK        -0.1996 
     59 N         -79.7055   21.7749  -75.2861 N.am      3 UNK        -0.4254 
     60 C         -81.0111   21.7748  -74.9746 C.2       2 UNK         0.5004 
     61 O         -81.9121   21.8133  -75.8127 O.2       2 UNK        -0.5226 
     62 CA        -81.3808   21.7749  -73.4779 C.3       2 UNK         0.0269 
     63 CB        -81.7298   20.3530  -73.0097 C.3       2 UNK        -0.1926 
     64 N         -80.3326   22.3247  -72.6096 N.am      2 UNK        -0.4687 
     65 C         -79.8774   23.5858  -72.6525 C.2       1 UNK         0.5165 
     66 O         -80.3454   24.4439  -73.4017 O.2       1 UNK        -0.5079 
     67 H67       -75.1880   21.9408  -74.1718 H         1 UNK         0.0900 
     68 H68       -74.8580   23.3762  -73.2038 H         1 UNK         0.0900 
     69 H69       -75.7091   23.5255  -74.7503 H         1 UNK         0.0900 
     70 H70       -76.8769   24.6716  -72.5412 H         1 UNK         0.2959 
     71 H71       -78.6240   23.1421  -70.9833 H         1 UNK         0.1079 
     72 H72       -79.7846   25.4134  -70.6292 H         1 UNK         0.0837 
     73 H73       -78.1162   25.2716  -70.1651 H         1 UNK         0.0837 
     74 H74       -77.8414   27.8569  -69.9761 H         1 UNK         0.0685 
     75 H75       -79.5252   28.0512  -70.4140 H         1 UNK         0.0685 
     76 H76       -79.8762   29.3345  -72.7825 H         1 UNK         0.1434 
     77 H77       -77.5539   32.9384  -72.9216 H         1 UNK         0.1329 
     78 H78       -76.5293   29.8353  -70.1488 H         1 UNK         0.1335 
     79 H79       -76.1631   33.4015  -70.9061 H         1 UNK         0.0680 
     80 H80       -75.5912   32.1056  -69.8928 H         1 UNK         0.0680 
     81 H81       -74.1219   30.0032  -71.1689 H         1 UNK         0.1032 
     82 H82       -73.2912   31.1224  -70.1133 H         1 UNK         0.1032 
     83 H83       -71.5307   31.4633  -71.9100 H         1 UNK         0.0461 
     84 H84       -69.8515   30.8295  -70.5616 H         1 UNK         0.3453 
     85 H85       -69.6785   29.2276  -69.8928 H         1 UNK         0.3453 
     86 H86       -73.2771   29.7962  -73.4620 H         1 UNK         0.2984 
     87 H87       -72.3781   30.0483  -76.0389 H         1 UNK         0.0554 
     88 H88       -70.0155   29.6401  -76.6343 H         1 UNK         0.0847 
     89 H89       -71.0236   28.3675  -77.3046 H         1 UNK         0.0847 
     90 H90       -70.0517   28.0599  -75.8660 H         1 UNK         0.0847 
     91 H91       -73.7234   28.3416  -75.6882 H         1 UNK         0.3141 
     92 H92       -73.4691   25.1906  -73.9968 H         1 UNK         0.0743 
     93 H93       -74.5281   26.8919  -72.5321 H         1 UNK         0.0784 
     94 H94       -75.2992   27.6560  -73.9138 H         1 UNK         0.0784 
     95 H95       -75.7561   26.0268  -73.4443 H         1 UNK         0.0784 
     96 H96       -75.3223   26.1430  -75.9549 H         1 UNK         0.3213 
     97 H97       -73.7197   24.7386  -78.8127 H         1 UNK         0.0855 
     98 H98       -76.2114   23.8841  -77.2548 H         1 UNK         0.0814 
     99 H99       -74.9185   22.8224  -77.7919 H         1 UNK         0.0814 
    100 H100      -75.9459   23.6177  -78.9759 H         1 UNK         0.0814 
    101 H101      -76.1736   26.2094  -78.1490 H         1 UNK         0.3105 
    102 H102      -74.8445   29.3721  -79.0185 H         1 UNK         0.0547 
    103 H103      -75.2936   28.4372  -81.2912 H         1 UNK         0.0837 
    104 H104      -76.7537   27.6578  -80.6999 H         1 UNK         0.0837 
    105 H105      -76.6370   29.4181  -80.7327 H         1 UNK         0.0837 
    106 H106      -77.5122   28.5111  -78.4874 H         1 UNK         0.3020 
    107 H107      -77.3997   28.8592  -74.9479 H         1 UNK         0.1245 
    108 H108      -78.3825   30.6656  -77.2218 H         1 UNK         0.0781 
    109 H109      -77.6354   31.1543  -75.7260 H         1 UNK         0.0781 
    110 H110      -80.6722   31.9918  -73.6423 H         1 UNK         0.0836 
    111 H111      -79.3051   32.6731  -74.4883 H         1 UNK         0.0836 
    112 H112      -79.6052   28.2781  -76.4029 H         1 UNK         0.3022 
    113 H113      -80.4288   26.1144  -75.6462 H         1 UNK         0.0747 
    114 H114      -81.3898   25.4987  -77.9159 H         1 UNK         0.0793 
    115 H115      -79.8671   25.9954  -78.6528 H         1 UNK         0.0793 
    116 H116      -80.8584   27.1635  -77.7994 H         1 UNK         0.0793 
    117 H117      -79.8556   24.0578  -75.3235 H         1 UNK         0.3047 
    118 H118      -79.8068   21.4046  -77.3348 H         1 UNK         0.0822 
    119 H119      -77.7734   20.2902  -76.4143 H         1 UNK         0.0807 
    120 H120      -77.0576   21.8628  -76.0735 H         1 UNK         0.0807 
    121 H121      -77.3721   21.3782  -77.7317 H         1 UNK         0.0807 
    122 H122      -79.0283   21.7180  -74.5303 H         1 UNK         0.2946 
    123 H123      -82.2679   22.4029  -73.3672 H         1 UNK         0.1144 
    124 H124      -82.5261   19.9251  -73.6207 H         1 UNK         0.0793 
    125 H125      -82.0792   20.3489  -71.9771 H         1 UNK         0.0793 
    126 H126      -80.8711   19.6838  -73.0780 H         1 UNK         0.0793 
    127 H127      -79.8502   21.6620  -72.0181 H         1 UNK         0.2896 
@<TRIPOS>BOND
     1    1    2 1    
     2    1   67 1    
     3    1   68 1    
     4    1   69 1    
     5    2    3 2    
     6    2    4 am   BACKBONE|DICT|INTERRES
     7    4    5 1    
     8    4   70 1    
     9    5    6 1    
    10    5   65 1    
    11    5   71 1    
    12    6    7 1    
    13    6   72 1    
    14    6   73 1    
    15    7    8 1    
    16    8    9 1    
    17    8   74 1    
    18    8   75 1    
    19    9   10 ar   
    20    9   14 ar   
    21   10   11 ar   
    22   10   76 1    
    23   11   12 ar   
    24   11   48 1    
    25   12   13 ar   
    26   12   77 1    
    27   13   14 ar   
    28   13   15 1    
    29   14   78 1    
    30   15   16 1    
    31   15   79 1    
    32   15   80 1    
    33   16   17 1    
    34   17   18 1    
    35   17   81 1    
    36   17   82 1    
    37   18   19 1    
    38   18   22 1    
    39   18   83 1    
    40   19   20 am   BACKBONE|DICT|INTERRES
    41   19   21 2    
    42   20   84 1    
    43   20   85 1    
    44   22   23 am   BACKBONE|DICT|INTERRES
    45   22   86 1    
    46   23   24 2    
    47   23   25 1    
    48   25   26 1    
    49   25   27 1    
    50   25   87 1    
    51   26   88 1    
    52   26   89 1    
    53   26   90 1    
    54   27   28 am   BACKBONE|DICT|INTERRES
    55   27   91 1    
    56   28   29 2    
    57   28   30 1    
    58   30   31 1    
    59   30   32 1    
    60   30   92 1    
    61   31   93 1    
    62   31   94 1    
    63   31   95 1    
    64   32   33 am   BACKBONE|DICT|INTERRES
    65   32   96 1    
    66   33   34 2    
    67   33   35 1    
    68   35   36 1    
    69   35   37 1    
    70   35   97 1    
    71   36   98 1    
    72   36   99 1    
    73   36  100 1    
    74   37   38 am   BACKBONE|DICT|INTERRES
    75   37  101 1    
    76   38   39 2    
    77   38   40 1    
    78   40   41 1    
    79   40   42 1    
    80   40  102 1    
    81   41  103 1    
    82   41  104 1    
    83   41  105 1    
    84   42   43 am   BACKBONE|DICT|INTERRES
    85   42  106 1    
    86   43   44 2    
    87   43   45 1    
    88   45   46 1    
    89   45   49 1    
    90   45  107 1    
    91   46   47 1    
    92   46  108 1    
    93   46  109 1    
    94   47   48 1    
    95   48  110 1    
    96   48  111 1    
    97   49   50 am   BACKBONE|DICT|INTERRES
    98   49  112 1    
    99   50   51 2    
   100   50   52 1    
   101   52   53 1    
   102   52   54 1    
   103   52  113 1    
   104   53  114 1    
   105   53  115 1    
   106   53  116 1    
   107   54   55 am   BACKBONE|DICT|INTERRES
   108   54  117 1    
   109   55   56 2    
   110   55   57 1    
   111   57   58 1    
   112   57   59 1    
   113   57  118 1    
   114   58  119 1    
   115   58  120 1    
   116   58  121 1    
   117   59   60 am   BACKBONE|DICT|INTERRES
   118   59  122 1    
   119   60   61 2    
   120   60   62 1    
   121   62   63 1    
   122   62   64 1    
   123   62  123 1    
   124   63  124 1    
   125   63  125 1    
   126   63  126 1    
   127   64   65 am   BACKBONE|DICT|INTERRES
   128   64  127 1    
   129   65   66 2    
@<TRIPOS>SUBSTRUCTURE
     1 UNK         1 GROUP             0       ****    0 ROOT    
