@<TRIPOS>MOLECULE
3R135
127   129    1
SMALL
USER_CHARGES


@<TRIPOS>ATOM
      1 CA        -79.3143   22.5754  -69.5983 C.3       0 UNK        -0.1998 
      2 C         -80.4272   23.2716  -70.3674 C.2       0 UNK         0.4909 
      3 O         -81.5043   22.6989  -70.5397 O.2       0 UNK        -0.5240 
      4 N         -80.1774   24.5059  -70.8209 N.am      1 UNK        -0.4739 
      5 CA        -81.1038   25.3070  -71.6315 C.3       1 UNK         0.0864 
      6 C6        -80.7451   26.8151  -71.6025 C.3       11 UNK        -0.0881 
      7 S7        -80.5522   27.4740  -69.9094 S.3       11 UNK        -0.2682 
      8 C8        -80.3037   29.2524  -70.2216 C.3       11 UNK         0.0289 
      9 C9        -79.2044   29.5167  -71.2418 C.ar      11 UNK        -0.0687 
     10 C10       -79.5302   30.0259  -72.5019 C.ar      11 UNK        -0.0823 
     11 C11       -78.5358   30.2530  -73.4572 C.ar      11 UNK        -0.0830 
     12 C12       -77.2037   29.9699  -73.1422 C.ar      11 UNK        -0.1021 
     13 C13       -76.8654   29.4579  -71.8861 C.ar      11 UNK        -0.0753 
     14 C14       -77.8682   29.2393  -70.9363 C.ar      11 UNK        -0.0933 
     15 C15       -75.4156   29.1377  -71.5639 C.3       11 UNK         0.0166 
     16 S16       -74.5116   30.6425  -71.0901 S.3       11 UNK        -0.2615 
     17 C17       -72.8124   30.0003  -70.9200 C.3       11 UNK        -0.0865 
     18 CA        -71.9175   30.3692  -72.1314 C.3       10 UNK         0.0862 
     19 C         -70.4410   29.9771  -71.8590 C.2       10 UNK         0.5551 
     20 N         -69.5741   30.9463  -71.6013 N.am      10 UNK        -0.7319 
     21 O         -70.0922   28.7988  -71.8303 O.2       10 UNK        -0.5018 
     22 N         -72.4170   29.7571  -73.3689 N.am      10 UNK        -0.4509 
     23 C         -72.0377   30.0899  -74.6086 C.2       10 UNK         0.4899 
     24 O         -71.2685   31.0173  -74.8663 O.2       10 UNK        -0.4839 
     25 CA        -72.6415   29.2398  -75.7451 C.3       9 UNK         0.0222 
     26 CB        -71.9285   29.4353  -77.0997 C.3       9 UNK        -0.1966 
     27 N         -72.7351   27.8150  -75.4023 N.am      9 UNK        -0.4218 
     28 C         -71.7249   26.9849  -75.0945 C.2       9 UNK         0.5020 
     29 O         -70.5357   27.3034  -75.0979 O.2       9 UNK        -0.5274 
     30 CA        -72.1106   25.5450  -74.7362 C.3       8 UNK         0.0270 
     31 CB        -72.7664   25.4747  -73.3446 C.3       8 UNK        -0.1976 
     32 N         -73.0149   24.9973  -75.7497 N.am      8 UNK        -0.4313 
     33 C         -72.6860   24.0275  -76.6128 C.2       8 UNK         0.5041 
     34 O         -71.6084   23.4302  -76.5992 O.2       8 UNK        -0.5577 
     35 CA        -73.7262   23.6478  -77.6794 C.3       7 UNK         0.0284 
     36 CB        -74.6487   22.5288  -77.1685 C.3       7 UNK        -0.1958 
     37 N         -74.5349   24.7743  -78.1529 N.am      7 UNK        -0.4454 
     38 C         -74.0742   25.7621  -78.9351 C.2       7 UNK         0.5089 
     39 O         -72.8948   25.8781  -79.2683 O.2       7 UNK        -0.5125 
     40 CA        -75.0999   26.7814  -79.4527 C.3       6 UNK         0.0408 
     41 CB        -75.8765   26.1989  -80.6448 C.3       6 UNK        -0.1791 
     42 N         -76.0445   27.1627  -78.4040 N.am      6 UNK        -0.4762 
     43 C         -76.0709   28.3544  -77.7904 C.2       6 UNK         0.5007 
     44 O         -75.3432   29.2992  -78.0951 O.2       6 UNK        -0.5032 
     45 CA        -77.0743   28.5298  -76.6294 C.3       5 UNK         0.0783 
     46 C46       -78.3415   29.2623  -77.1354 C.3       11 UNK        -0.0857 
     47 S47       -79.6311   29.4951  -75.8674 S.3       11 UNK        -0.2512 
     48 C48       -78.9166   30.8033  -74.8229 C.3       11 UNK         0.0225 
     49 N         -77.3883   27.2724  -75.9418 N.am      5 UNK        -0.4615 
     50 C         -76.4962   26.4984  -75.3097 C.2       4 UNK         0.5053 
     51 O         -75.3055   26.7877  -75.1936 O.2       4 UNK        -0.5105 
     52 CA        -76.9810   25.1390  -74.7782 C.3       4 UNK         0.0263 
     53 CB        -77.2780   25.2392  -73.2760 C.3       4 UNK        -0.1981 
     54 N         -78.1398   24.5776  -75.4897 N.am      4 UNK        -0.4224 
     55 C         -78.1966   24.3476  -76.8135 C.2       3 UNK         0.4895 
     56 O         -77.2697   24.6051  -77.5838 O.2       3 UNK        -0.5091 
     57 CA        -79.4848   23.7481  -77.4048 C.3       3 UNK         0.0250 
     58 CB        -79.2539   22.2786  -77.7921 C.3       3 UNK        -0.1996 
     59 N         -80.6585   23.8346  -76.5340 N.am      3 UNK        -0.4254 
     60 C         -81.2837   24.9637  -76.1719 C.2       2 UNK         0.5004 
     61 O         -80.9339   26.0864  -76.5361 O.2       2 UNK        -0.5226 
     62 CA        -82.4908   24.8182  -75.2209 C.3       2 UNK         0.0269 
     63 CB        -83.1258   23.4086  -75.2358 C.3       2 UNK        -0.1926 
     64 N         -82.1830   25.2103  -73.8374 N.am      2 UNK        -0.4687 
     65 C         -81.1587   24.7803  -73.0838 C.2       1 UNK         0.5165 
     66 O         -80.2778   24.0204  -73.4987 O.2       1 UNK        -0.5079 
     67 H67       -78.4259   23.2009  -69.5115 H         1 UNK         0.0900 
     68 H68       -79.0307   21.6526  -70.1037 H         1 UNK         0.0900 
     69 H69       -79.6522   22.3247  -68.5931 H         1 UNK         0.0900 
     70 H70       -79.2771   24.9282  -70.6491 H         1 UNK         0.2959 
     71 H71       -82.1030   25.1890  -71.2056 H         1 UNK         0.1079 
     72 H72       -79.8190   26.9990  -72.1469 H         1 UNK         0.0837 
     73 H73       -81.5142   27.4018  -72.1083 H         1 UNK         0.0837 
     74 H74       -81.2493   29.6872  -70.5493 H         1 UNK         0.0685 
     75 H75       -80.0498   29.7451  -69.2821 H         1 UNK         0.0685 
     76 H76       -80.5622   30.2364  -72.7480 H         1 UNK         0.1434 
     77 H77       -76.4229   30.1531  -73.8662 H         1 UNK         0.1329 
     78 H78       -77.6138   28.8419  -69.9632 H         1 UNK         0.1335 
     79 H79       -75.3557   28.4078  -70.7549 H         1 UNK         0.0680 
     80 H80       -74.9444   28.6770  -72.4331 H         1 UNK         0.0680 
     81 H81       -72.8322   28.9200  -70.7624 H         1 UNK         0.1032 
     82 H82       -72.3982   30.4265  -70.0040 H         1 UNK         0.1032 
     83 H83       -71.9651   31.4526  -72.2625 H         1 UNK         0.0461 
     84 H84       -68.6147   30.7070  -71.4045 H         1 UNK         0.3453 
     85 H85       -69.8556   31.9144  -71.6170 H         1 UNK         0.3453 
     86 H86       -73.0238   28.9614  -73.2551 H         1 UNK         0.2984 
     87 H87       -73.6685   29.5873  -75.8640 H         1 UNK         0.0554 
     88 H88       -72.3949   28.8344  -77.8809 H         1 UNK         0.0847 
     89 H89       -70.8745   29.1613  -77.0480 H         1 UNK         0.0847 
     90 H90       -71.9794   30.4763  -77.4208 H         1 UNK         0.0847 
     91 H91       -73.6853   27.4492  -75.3383 H         1 UNK         0.3141 
     92 H92       -71.1874   24.9632  -74.6918 H         1 UNK         0.0743 
     93 H93       -73.6939   26.0438  -73.2901 H         1 UNK         0.0784 
     94 H94       -72.9932   24.4446  -73.0698 H         1 UNK         0.0784 
     95 H95       -72.0965   25.8732  -72.5811 H         1 UNK         0.0784 
     96 H96       -73.9142   25.4544  -75.8465 H         1 UNK         0.3213 
     97 H97       -73.1764   23.2560  -78.5383 H         1 UNK         0.0855 
     98 H98       -75.2358   22.8451  -76.3073 H         1 UNK         0.0814 
     99 H99       -74.0697   21.6560  -76.8638 H         1 UNK         0.0814 
    100 H100      -75.3428   22.2021  -77.9431 H         1 UNK         0.0814 
    101 H101      -75.5332   24.7305  -77.9535 H         1 UNK         0.3105 
    102 H102      -74.5478   27.6542  -79.8075 H         1 UNK         0.0547 
    103 H103      -75.1973   25.8958  -81.4429 H         1 UNK         0.0837 
    104 H104      -76.4600   25.3219  -80.3611 H         1 UNK         0.0837 
    105 H105      -76.5623   26.9341  -81.0656 H         1 UNK         0.0837 
    106 H106      -76.6657   26.4322  -78.0703 H         1 UNK         0.3020 
    107 H107      -76.5772   29.1719  -75.9027 H         1 UNK         0.1245 
    108 H108      -78.0833   30.2394  -77.5491 H         1 UNK         0.0781 
    109 H109      -78.7972   28.7014  -77.9541 H         1 UNK         0.0781 
    110 H110      -78.0558   31.2623  -75.3110 H         1 UNK         0.0836 
    111 H111      -79.6534   31.5988  -74.7019 H         1 UNK         0.0836 
    112 H112      -78.3521   26.9703  -75.9863 H         1 UNK         0.3022 
    113 H113      -76.1566   24.4369  -74.9050 H         1 UNK         0.0747 
    114 H114      -77.5539   24.2712  -72.8573 H         1 UNK         0.0793 
    115 H115      -76.4050   25.5942  -72.7261 H         1 UNK         0.0793 
    116 H116      -78.0896   25.9370  -73.0804 H         1 UNK         0.0793 
    117 H117      -78.9449   24.3327  -74.9187 H         1 UNK         0.3047 
    118 H118      -79.7059   24.3103  -78.3145 H         1 UNK         0.0822 
    119 H119      -80.1219   21.8604  -78.3022 H         1 UNK         0.0807 
    120 H120      -79.0446   21.6592  -76.9189 H         1 UNK         0.0807 
    121 H121      -78.4050   22.1812  -78.4708 H         1 UNK         0.0807 
    122 H122      -80.9960   22.9657  -76.1455 H         1 UNK         0.2946 
    123 H123      -83.2423   25.5198  -75.5877 H         1 UNK         0.1144 
    124 H124      -83.3671   23.0930  -76.2520 H         1 UNK         0.0793 
    125 H125      -84.0586   23.3977  -74.6718 H         1 UNK         0.0793 
    126 H126      -82.4726   22.6536  -74.7965 H         1 UNK         0.0793 
    127 H127      -82.8313   25.8679  -73.4266 H         1 UNK         0.2896 
@<TRIPOS>BOND
     1    1    2 1    
     2    1   67 1    
     3    1   68 1    
     4    1   69 1    
     5    2    3 2    
     6    2    4 am   BACKBONE|DICT|INTERRES
     7    4    5 1    
     8    4   70 1    
     9    5    6 1    
    10    5   65 1    
    11    5   71 1    
    12    6    7 1    
    13    6   72 1    
    14    6   73 1    
    15    7    8 1    
    16    8    9 1    
    17    8   74 1    
    18    8   75 1    
    19    9   10 ar   
    20    9   14 ar   
    21   10   11 ar   
    22   10   76 1    
    23   11   12 ar   
    24   11   48 1    
    25   12   13 ar   
    26   12   77 1    
    27   13   14 ar   
    28   13   15 1    
    29   14   78 1    
    30   15   16 1    
    31   15   79 1    
    32   15   80 1    
    33   16   17 1    
    34   17   18 1    
    35   17   81 1    
    36   17   82 1    
    37   18   19 1    
    38   18   22 1    
    39   18   83 1    
    40   19   20 am   BACKBONE|DICT|INTERRES
    41   19   21 2    
    42   20   84 1    
    43   20   85 1    
    44   22   23 am   BACKBONE|DICT|INTERRES
    45   22   86 1    
    46   23   24 2    
    47   23   25 1    
    48   25   26 1    
    49   25   27 1    
    50   25   87 1    
    51   26   88 1    
    52   26   89 1    
    53   26   90 1    
    54   27   28 am   BACKBONE|DICT|INTERRES
    55   27   91 1    
    56   28   29 2    
    57   28   30 1    
    58   30   31 1    
    59   30   32 1    
    60   30   92 1    
    61   31   93 1    
    62   31   94 1    
    63   31   95 1    
    64   32   33 am   BACKBONE|DICT|INTERRES
    65   32   96 1    
    66   33   34 2    
    67   33   35 1    
    68   35   36 1    
    69   35   37 1    
    70   35   97 1    
    71   36   98 1    
    72   36   99 1    
    73   36  100 1    
    74   37   38 am   BACKBONE|DICT|INTERRES
    75   37  101 1    
    76   38   39 2    
    77   38   40 1    
    78   40   41 1    
    79   40   42 1    
    80   40  102 1    
    81   41  103 1    
    82   41  104 1    
    83   41  105 1    
    84   42   43 am   BACKBONE|DICT|INTERRES
    85   42  106 1    
    86   43   44 2    
    87   43   45 1    
    88   45   46 1    
    89   45   49 1    
    90   45  107 1    
    91   46   47 1    
    92   46  108 1    
    93   46  109 1    
    94   47   48 1    
    95   48  110 1    
    96   48  111 1    
    97   49   50 am   BACKBONE|DICT|INTERRES
    98   49  112 1    
    99   50   51 2    
   100   50   52 1    
   101   52   53 1    
   102   52   54 1    
   103   52  113 1    
   104   53  114 1    
   105   53  115 1    
   106   53  116 1    
   107   54   55 am   BACKBONE|DICT|INTERRES
   108   54  117 1    
   109   55   56 2    
   110   55   57 1    
   111   57   58 1    
   112   57   59 1    
   113   57  118 1    
   114   58  119 1    
   115   58  120 1    
   116   58  121 1    
   117   59   60 am   BACKBONE|DICT|INTERRES
   118   59  122 1    
   119   60   61 2    
   120   60   62 1    
   121   62   63 1    
   122   62   64 1    
   123   62  123 1    
   124   63  124 1    
   125   63  125 1    
   126   63  126 1    
   127   64   65 am   BACKBONE|DICT|INTERRES
   128   64  127 1    
   129   65   66 2    
@<TRIPOS>SUBSTRUCTURE
     1 UNK         1 GROUP             0       ****    0 ROOT    
