@<TRIPOS>MOLECULE
3R135
127   129    1
SMALL
USER_CHARGES


@<TRIPOS>ATOM
      1 CA        -77.7957   30.3962  -75.8619 C.3       0 UNK        -0.1998 
      2 C         -79.0614   29.7012  -75.3829 C.2       0 UNK         0.4909 
      3 O         -80.1206   29.8828  -75.9843 O.2       0 UNK        -0.5240 
      4 N         -78.9521   28.9054  -74.3103 N.am      1 UNK        -0.4739 
      5 CA        -80.0131   28.0573  -73.7499 C.3       1 UNK         0.0864 
      6 C6        -81.1905   28.8803  -73.1502 C.3       11 UNK        -0.0881 
      7 S7        -81.9719   28.0275  -71.7361 S.3       11 UNK        -0.2682 
      8 C8        -81.1702   28.8364  -70.3105 C.3       11 UNK         0.0289 
      9 C9        -79.6539   28.6927  -70.3408 C.ar      11 UNK        -0.0687 
     10 C10       -79.0585   27.4435  -70.1283 C.ar      11 UNK        -0.0823 
     11 C11       -77.6694   27.3014  -70.2031 C.ar      11 UNK        -0.0830 
     12 C12       -76.8762   28.4254  -70.4405 C.ar      11 UNK        -0.1021 
     13 C13       -77.4574   29.6727  -70.6675 C.ar      11 UNK        -0.0753 
     14 C14       -78.8475   29.8045  -70.6121 C.ar      11 UNK        -0.0933 
     15 C15       -76.5678   30.8581  -70.9989 C.3       11 UNK         0.0166 
     16 S16       -76.0454   30.7999  -72.7443 S.3       11 UNK        -0.2615 
     17 C17       -74.3059   31.3540  -72.6323 C.3       11 UNK        -0.0865 
     18 CA        -73.2630   30.2331  -72.9001 C.3       10 UNK         0.0862 
     19 C         -73.3079   29.0772  -71.8622 C.2       10 UNK         0.5551 
     20 N         -73.4644   27.8215  -72.2658 N.am      10 UNK        -0.7319 
     21 O         -73.1701   29.3229  -70.6667 O.2       10 UNK        -0.5018 
     22 N         -73.2610   29.7819  -74.3005 N.am      10 UNK        -0.4509 
     23 C         -72.5469   30.3477  -75.2796 C.2       10 UNK         0.4899 
     24 O         -71.8739   31.3706  -75.1369 O.2       10 UNK        -0.4839 
     25 CA        -72.5841   29.6301  -76.6410 C.3       9 UNK         0.0222 
     26 CB        -71.6689   30.2796  -77.7003 C.3       9 UNK        -0.1966 
     27 N         -72.3062   28.1948  -76.5207 N.am      9 UNK        -0.4218 
     28 C         -71.1985   27.5911  -76.0612 C.2       9 UNK         0.5020 
     29 O         -70.1919   28.1892  -75.6794 O.2       9 UNK        -0.5274 
     30 CA        -71.2112   26.0481  -76.0115 C.3       8 UNK         0.0270 
     31 CB        -71.4132   25.5559  -74.5690 C.3       8 UNK        -0.1976 
     32 N         -72.2384   25.4438  -76.8654 N.am      8 UNK        -0.4313 
     33 C         -72.2107   25.4240  -78.2057 C.2       8 UNK         0.5041 
     34 O         -71.2499   25.7960  -78.8798 O.2       8 UNK        -0.5577 
     35 CA        -73.5013   24.9699  -78.9083 C.3       7 UNK         0.0284 
     36 CB        -73.5620   23.4384  -79.0315 C.3       7 UNK        -0.1958 
     37 N         -74.6941   25.4719  -78.2165 N.am      7 UNK        -0.4454 
     38 C         -75.0778   26.7570  -78.2215 C.2       7 UNK         0.5089 
     39 O         -74.5147   27.6341  -78.8747 O.2       7 UNK        -0.5125 
     40 CA        -76.2615   27.1469  -77.3241 C.3       6 UNK         0.0408 
     41 CB        -77.5764   27.0644  -78.1141 C.3       6 UNK        -0.1791 
     42 N         -76.3542   26.3330  -76.1093 N.am      6 UNK        -0.4762 
     43 C         -75.5474   26.4591  -75.0424 C.2       6 UNK         0.5007 
     44 O         -74.6588   27.3076  -74.9486 O.2       6 UNK        -0.5032 
     45 CA        -75.7538   25.4592  -73.8830 C.3       5 UNK         0.0783 
     46 C46       -76.8717   25.9924  -72.9612 C.3       11 UNK        -0.0857 
     47 S47       -77.3016   24.8949  -71.5619 S.3       11 UNK        -0.2512 
     48 C48       -77.0127   25.9328  -70.0866 C.3       11 UNK         0.0225 
     49 N         -76.0460   24.1036  -74.3470 N.am      5 UNK        -0.4615 
     50 C         -75.3423   23.3818  -75.2275 C.2       4 UNK         0.5053 
     51 O         -74.2617   23.7439  -75.6922 O.2       4 UNK        -0.5105 
     52 CA        -75.9767   22.0623  -75.7153 C.3       4 UNK         0.0263 
     53 CB        -75.2309   20.8589  -75.1185 C.3       4 UNK        -0.1981 
     54 N         -77.4132   21.9392  -75.4193 N.am      4 UNK        -0.4224 
     55 C         -78.3709   22.7703  -75.8595 C.2       3 UNK         0.4895 
     56 O         -78.1497   23.7000  -76.6415 O.2       3 UNK        -0.5091 
     57 CA        -79.7823   22.5809  -75.2756 C.3       3 UNK         0.0250 
     58 CB        -79.7606   22.1743  -73.7829 C.3       3 UNK        -0.1996 
     59 N         -80.5074   23.8367  -75.4482 N.am      3 UNK        -0.4254 
     60 C         -81.8179   24.0519  -75.3117 C.2       2 UNK         0.5004 
     61 O         -82.6246   23.1755  -74.9944 O.2       2 UNK        -0.5226 
     62 CA        -82.3003   25.4957  -75.5714 C.3       2 UNK         0.0269 
     63 CB        -83.8321   25.6324  -75.4817 C.3       2 UNK        -0.1926 
     64 N         -81.6913   26.4825  -74.6704 N.am      2 UNK        -0.4687 
     65 C         -80.4355   26.9447  -74.7423 C.2       1 UNK         0.5165 
     66 O         -79.6090   26.5041  -75.5439 O.2       1 UNK        -0.5079 
     67 H67       -77.7965   31.4392  -75.5467 H         1 UNK         0.0900 
     68 H68       -77.7369   30.3663  -76.9496 H         1 UNK         0.0900 
     69 H69       -76.8995   29.9186  -75.4665 H         1 UNK         0.0900 
     70 H70       -78.0535   28.8249  -73.8562 H         1 UNK         0.2959 
     71 H71       -79.5284   27.5290  -72.9297 H         1 UNK         0.1079 
     72 H72       -80.8330   29.8508  -72.8030 H         1 UNK         0.0837 
     73 H73       -81.9443   29.1119  -73.9052 H         1 UNK         0.0837 
     74 H74       -81.5546   28.3935  -69.3907 H         1 UNK         0.0685 
     75 H75       -81.4605   29.8880  -70.2876 H         1 UNK         0.0685 
     76 H76       -79.6787   26.5757  -69.9483 H         1 UNK         0.1434 
     77 H77       -75.8018   28.3223  -70.4996 H         1 UNK         0.1329 
     78 H78       -79.3011   30.7688  -70.7962 H         1 UNK         0.1335 
     79 H79       -77.0845   31.7999  -70.8082 H         1 UNK         0.0680 
     80 H80       -75.7013   30.8406  -70.3364 H         1 UNK         0.0680 
     81 H81       -74.1199   31.8129  -71.6601 H         1 UNK         0.1032 
     82 H82       -74.1653   32.1600  -73.3538 H         1 UNK         0.1032 
     83 H83       -72.2838   30.6801  -72.7164 H         1 UNK         0.0461 
     84 H84       -73.4524   27.0885  -71.5758 H         1 UNK         0.3453 
     85 H85       -73.6122   27.6056  -73.2406 H         1 UNK         0.3453 
     86 H86       -73.8050   28.9497  -74.5078 H         1 UNK         0.2984 
     87 H87       -73.6110   29.7114  -77.0006 H         1 UNK         0.0554 
     88 H88       -71.7484   29.7655  -78.6582 H         1 UNK         0.0847 
     89 H89       -70.6216   30.2649  -77.3970 H         1 UNK         0.0847 
     90 H90       -71.9442   31.3215  -77.8678 H         1 UNK         0.0847 
     91 H91       -73.0803   27.5921  -76.7609 H         1 UNK         0.3141 
     92 H92       -70.2346   25.7033  -76.3577 H         1 UNK         0.0743 
     93 H93       -72.3908   25.8384  -74.1799 H         1 UNK         0.0784 
     94 H94       -71.3314   24.4705  -74.5063 H         1 UNK         0.0784 
     95 H95       -70.6608   25.9774  -73.9008 H         1 UNK         0.0784 
     96 H96       -73.0359   25.0183  -76.3971 H         1 UNK         0.3213 
     97 H97       -73.4940   25.3874  -79.9178 H         1 UNK         0.0855 
     98 H98       -73.5316   22.9443  -78.0607 H         1 UNK         0.0814 
     99 H99       -72.7149   23.0650  -79.6084 H         1 UNK         0.0814 
    100 H100      -74.4685   23.1166  -79.5443 H         1 UNK         0.0814 
    101 H101      -75.1901   24.8229  -77.6222 H         1 UNK         0.3105 
    102 H102      -76.1121   28.1872  -77.0293 H         1 UNK         0.0547 
    103 H103      -77.4970   27.5883  -79.0677 H         1 UNK         0.0837 
    104 H104      -77.8572   26.0326  -78.3287 H         1 UNK         0.0837 
    105 H105      -78.3955   27.5289  -77.5674 H         1 UNK         0.0837 
    106 H106      -77.0712   25.6153  -76.1012 H         1 UNK         0.3020 
    107 H107      -74.8222   25.4101  -73.3167 H         1 UNK         0.1245 
    108 H108      -77.7872   26.1294  -73.5354 H         1 UNK         0.0781 
    109 H109      -76.5918   26.9800  -72.5995 H         1 UNK         0.0781 
    110 H110      -75.9372   26.0321  -69.9315 H         1 UNK         0.0836 
    111 H111      -77.4005   25.4169  -69.2072 H         1 UNK         0.0836 
    112 H112      -76.9039   23.7064  -73.9958 H         1 UNK         0.3022 
    113 H113      -75.8600   22.0353  -76.8006 H         1 UNK         0.0747 
    114 H114      -75.6049   19.9183  -75.5233 H         1 UNK         0.0793 
    115 H115      -74.1654   20.9065  -75.3490 H         1 UNK         0.0793 
    116 H116      -75.3276   20.8216  -74.0326 H         1 UNK         0.0793 
    117 H117      -77.6761   21.2022  -74.7807 H         1 UNK         0.3047 
    118 H118      -80.2829   21.8060  -75.8590 H         1 UNK         0.0822 
    119 H119      -79.2943   21.2001  -73.6348 H         1 UNK         0.0807 
    120 H120      -80.7676   22.0948  -73.3738 H         1 UNK         0.0807 
    121 H121      -79.2184   22.9002  -73.1757 H         1 UNK         0.0807 
    122 H122      -79.9241   24.6240  -75.7293 H         1 UNK         0.2946 
    123 H123      -82.0074   25.7428  -76.5947 H         1 UNK         0.1144 
    124 H124      -84.3279   24.9447  -76.1683 H         1 UNK         0.0793 
    125 H125      -84.1571   26.6390  -75.7458 H         1 UNK         0.0793 
    126 H126      -84.1987   25.4135  -74.4780 H         1 UNK         0.0793 
    127 H127      -82.2853   26.8505  -73.9391 H         1 UNK         0.2896 
@<TRIPOS>BOND
     1    1    2 1    
     2    1   67 1    
     3    1   68 1    
     4    1   69 1    
     5    2    3 2    
     6    2    4 am   BACKBONE|DICT|INTERRES
     7    4    5 1    
     8    4   70 1    
     9    5    6 1    
    10    5   65 1    
    11    5   71 1    
    12    6    7 1    
    13    6   72 1    
    14    6   73 1    
    15    7    8 1    
    16    8    9 1    
    17    8   74 1    
    18    8   75 1    
    19    9   10 ar   
    20    9   14 ar   
    21   10   11 ar   
    22   10   76 1    
    23   11   12 ar   
    24   11   48 1    
    25   12   13 ar   
    26   12   77 1    
    27   13   14 ar   
    28   13   15 1    
    29   14   78 1    
    30   15   16 1    
    31   15   79 1    
    32   15   80 1    
    33   16   17 1    
    34   17   18 1    
    35   17   81 1    
    36   17   82 1    
    37   18   19 1    
    38   18   22 1    
    39   18   83 1    
    40   19   20 am   BACKBONE|DICT|INTERRES
    41   19   21 2    
    42   20   84 1    
    43   20   85 1    
    44   22   23 am   BACKBONE|DICT|INTERRES
    45   22   86 1    
    46   23   24 2    
    47   23   25 1    
    48   25   26 1    
    49   25   27 1    
    50   25   87 1    
    51   26   88 1    
    52   26   89 1    
    53   26   90 1    
    54   27   28 am   BACKBONE|DICT|INTERRES
    55   27   91 1    
    56   28   29 2    
    57   28   30 1    
    58   30   31 1    
    59   30   32 1    
    60   30   92 1    
    61   31   93 1    
    62   31   94 1    
    63   31   95 1    
    64   32   33 am   BACKBONE|DICT|INTERRES
    65   32   96 1    
    66   33   34 2    
    67   33   35 1    
    68   35   36 1    
    69   35   37 1    
    70   35   97 1    
    71   36   98 1    
    72   36   99 1    
    73   36  100 1    
    74   37   38 am   BACKBONE|DICT|INTERRES
    75   37  101 1    
    76   38   39 2    
    77   38   40 1    
    78   40   41 1    
    79   40   42 1    
    80   40  102 1    
    81   41  103 1    
    82   41  104 1    
    83   41  105 1    
    84   42   43 am   BACKBONE|DICT|INTERRES
    85   42  106 1    
    86   43   44 2    
    87   43   45 1    
    88   45   46 1    
    89   45   49 1    
    90   45  107 1    
    91   46   47 1    
    92   46  108 1    
    93   46  109 1    
    94   47   48 1    
    95   48  110 1    
    96   48  111 1    
    97   49   50 am   BACKBONE|DICT|INTERRES
    98   49  112 1    
    99   50   51 2    
   100   50   52 1    
   101   52   53 1    
   102   52   54 1    
   103   52  113 1    
   104   53  114 1    
   105   53  115 1    
   106   53  116 1    
   107   54   55 am   BACKBONE|DICT|INTERRES
   108   54  117 1    
   109   55   56 2    
   110   55   57 1    
   111   57   58 1    
   112   57   59 1    
   113   57  118 1    
   114   58  119 1    
   115   58  120 1    
   116   58  121 1    
   117   59   60 am   BACKBONE|DICT|INTERRES
   118   59  122 1    
   119   60   61 2    
   120   60   62 1    
   121   62   63 1    
   122   62   64 1    
   123   62  123 1    
   124   63  124 1    
   125   63  125 1    
   126   63  126 1    
   127   64   65 am   BACKBONE|DICT|INTERRES
   128   64  127 1    
   129   65   66 2    
@<TRIPOS>SUBSTRUCTURE
     1 UNK         1 GROUP             0       ****    0 ROOT    
