@<TRIPOS>MOLECULE
3R135
127   129    1
SMALL
USER_CHARGES


@<TRIPOS>ATOM
      1 CA        -77.2074   26.7643  -72.7151 C.3       0 UNK        -0.1998 
      2 C         -78.4156   26.1342  -72.0404 C.2       0 UNK         0.4909 
      3 O         -78.3509   24.9720  -71.6362 O.2       0 UNK        -0.5240 
      4 N         -79.5167   26.8868  -71.9071 N.am      1 UNK        -0.4739 
      5 CA        -80.7890   26.4204  -71.3431 C.3       1 UNK         0.0864 
      6 C6        -81.8087   27.5705  -71.1551 C.3       11 UNK        -0.0881 
      7 S7        -81.3325   28.7047  -69.8097 S.3       11 UNK        -0.2682 
      8 C8        -81.1906   30.2953  -70.6819 C.3       11 UNK         0.0289 
      9 C9        -79.8918   30.3979  -71.4658 C.ar      11 UNK        -0.0687 
     10 C10       -79.8925   30.3158  -72.8625 C.ar      11 UNK        -0.0823 
     11 C11       -78.6962   30.4372  -73.5766 C.ar      11 UNK        -0.0830 
     12 C12       -77.4994   30.6465  -72.8863 C.ar      11 UNK        -0.1021 
     13 C13       -77.4866   30.7182  -71.4912 C.ar      11 UNK        -0.0753 
     14 C14       -78.6860   30.5962  -70.7858 C.ar      11 UNK        -0.0933 
     15 C15       -76.1727   30.9247  -70.7567 C.3       11 UNK         0.0166 
     16 S16       -75.1928   29.3943  -70.7596 S.3       11 UNK        -0.2615 
     17 C17       -73.5792   29.9896  -70.1420 C.3       11 UNK        -0.0865 
     18 CA        -72.7710   30.8646  -71.1549 C.3       10 UNK         0.0862 
     19 C         -71.3469   31.2456  -70.6438 C.2       10 UNK         0.5551 
     20 N         -71.1884   31.5355  -69.3586 N.am      10 UNK        -0.7319 
     21 O         -70.3855   31.3304  -71.4066 O.2       10 UNK        -0.5018 
     22 N         -72.7751   30.3334  -72.5293 N.am      10 UNK        -0.4509 
     23 C         -72.2872   29.1519  -72.9218 C.2       10 UNK         0.4899 
     24 O         -71.7493   28.3293  -72.1750 O.2       10 UNK        -0.4839 
     25 CA        -72.4336   28.8342  -74.4130 C.3       9 UNK         0.0222 
     26 CB        -71.2564   29.4015  -75.2266 C.3       9 UNK        -0.1966 
     27 N         -72.4991   27.3857  -74.5636 N.am      9 UNK        -0.4218 
     28 C         -73.0981   26.7364  -75.5636 C.2       9 UNK         0.5020 
     29 O         -73.6378   27.2918  -76.5257 O.2       9 UNK        -0.5274 
     30 CA        -73.1303   25.2068  -75.4472 C.3       8 UNK         0.0270 
     31 CB        -74.3160   24.7607  -74.5775 C.3       8 UNK        -0.1976 
     32 N         -73.2803   24.6317  -76.7787 N.am      8 UNK        -0.4313 
     33 C         -72.2685   24.2884  -77.5842 C.2       8 UNK         0.5041 
     34 O         -71.0917   24.2125  -77.2279 O.2       8 UNK        -0.5577 
     35 CA        -72.6384   24.0401  -79.0526 C.3       7 UNK         0.0284 
     36 CB        -73.3798   22.7029  -79.2190 C.3       7 UNK        -0.1958 
     37 N         -73.4751   25.1357  -79.5435 N.am      7 UNK        -0.4454 
     38 C         -73.0068   26.3014  -80.0137 C.2       7 UNK         0.5089 
     39 O         -71.8150   26.5414  -80.2079 O.2       7 UNK        -0.5125 
     40 CA        -74.0532   27.3889  -80.2905 C.3       6 UNK         0.0408 
     41 CB        -74.7595   27.0699  -81.6276 C.3       6 UNK        -0.1791 
     42 N         -74.9603   27.4454  -79.1385 N.am      6 UNK        -0.4762 
     43 C         -76.2154   27.9004  -79.0514 C.2       6 UNK         0.5007 
     44 O         -76.8320   28.4458  -79.9683 O.2       6 UNK        -0.5032 
     45 CA        -76.9265   27.6403  -77.7082 C.3       5 UNK         0.0783 
     46 C46       -77.8678   28.8071  -77.3178 C.3       11 UNK        -0.0857 
     47 S47       -78.5043   28.6080  -75.6204 S.3       11 UNK        -0.2512 
     48 C48       -78.6828   30.3389  -75.0928 C.3       11 UNK         0.0225 
     49 N         -77.6497   26.3675  -77.7749 N.am      5 UNK        -0.4615 
     50 C         -77.0997   25.1502  -77.8462 C.2       4 UNK         0.5053 
     51 O         -75.8863   24.9305  -77.8183 O.2       4 UNK        -0.5105 
     52 CA        -78.0727   23.9692  -77.9783 C.3       4 UNK         0.0263 
     53 CB        -77.7085   23.0901  -79.1870 C.3       4 UNK        -0.1981 
     54 N         -78.0827   23.1501  -76.7664 N.am      4 UNK        -0.4224 
     55 C         -78.5689   23.5500  -75.5844 C.2       3 UNK         0.4895 
     56 O         -79.0665   24.6605  -75.3870 O.2       3 UNK        -0.5091 
     57 CA        -78.4654   22.5385  -74.4318 C.3       3 UNK         0.0250 
     58 CB        -77.0768   22.5976  -73.7773 C.3       3 UNK        -0.1996 
     59 N         -79.4880   22.8015  -73.4183 N.am      3 UNK        -0.4254 
     60 C         -80.7636   22.3994  -73.5186 C.2       2 UNK         0.5004 
     61 O         -81.1824   21.6849  -74.4310 O.2       2 UNK        -0.5226 
     62 CA        -81.7450   22.8479  -72.4201 C.3       2 UNK         0.0269 
     63 CB        -81.9617   21.7183  -71.3994 C.3       2 UNK        -0.1926 
     64 N         -81.3093   24.0537  -71.7126 N.am      2 UNK        -0.4687 
     65 C         -81.3883   25.2948  -72.2112 C.2       1 UNK         0.5165 
     66 O         -81.9016   25.5670  -73.2984 O.2       1 UNK        -0.5079 
     67 H67       -77.3074   27.8457  -72.7904 H         1 UNK         0.0900 
     68 H68       -76.3010   26.5501  -72.1496 H         1 UNK         0.0900 
     69 H69       -77.0907   26.3615  -73.7210 H         1 UNK         0.0900 
     70 H70       -79.5112   27.8384  -72.2476 H         1 UNK         0.2959 
     71 H71       -80.5735   26.0035  -70.3567 H         1 UNK         0.1079 
     72 H72       -81.9470   28.1196  -72.0882 H         1 UNK         0.0837 
     73 H73       -82.7917   27.1725  -70.8946 H         1 UNK         0.0837 
     74 H74       -81.2257   31.1001  -69.9461 H         1 UNK         0.0685 
     75 H75       -82.0563   30.4411  -71.3299 H         1 UNK         0.0685 
     76 H76       -80.8209   30.1590  -73.3950 H         1 UNK         0.1434 
     77 H77       -76.5701   30.7332  -73.4331 H         1 UNK         0.1329 
     78 H78       -78.6843   30.6522  -69.7056 H         1 UNK         0.1335 
     79 H79       -76.3449   31.2437  -69.7276 H         1 UNK         0.0680 
     80 H80       -75.6171   31.7260  -71.2443 H         1 UNK         0.0680 
     81 H81       -72.9951   29.1115  -69.8607 H         1 UNK         0.1032 
     82 H82       -73.7576   30.5380  -69.2161 H         1 UNK         0.1032 
     83 H83       -73.2856   31.8218  -71.2369 H         1 UNK         0.0461 
     84 H84       -71.9599   31.5072  -68.7115 H         1 UNK         0.3453 
     85 H85       -70.2724   31.7993  -69.0300 H         1 UNK         0.3453 
     86 H86       -73.1631   30.9498  -73.2280 H         1 UNK         0.2984 
     87 H87       -73.3686   29.2730  -74.7692 H         1 UNK         0.0554 
     88 H88       -71.1864   30.4840  -75.1131 H         1 UNK         0.0847 
     89 H89       -71.3728   29.1947  -76.2907 H         1 UNK         0.0847 
     90 H90       -70.3046   28.9771  -74.9047 H         1 UNK         0.0847 
     91 H91       -72.1210   26.8728  -73.7758 H         1 UNK         0.3141 
     92 H92       -72.2009   24.8609  -74.9894 H         1 UNK         0.0743 
     93 H93       -74.2599   25.1929  -73.5776 H         1 UNK         0.0784 
     94 H94       -75.2713   25.0604  -75.0113 H         1 UNK         0.0784 
     95 H95       -74.3238   23.6776  -74.4605 H         1 UNK         0.0784 
     96 H96       -74.2135   24.7086  -77.1813 H         1 UNK         0.3213 
     97 H97       -71.7169   23.9958  -79.6376 H         1 UNK         0.0855 
     98 H98       -74.3055   22.6745  -78.6435 H         1 UNK         0.0814 
     99 H99       -72.7604   21.8716  -78.8798 H         1 UNK         0.0814 
    100 H100      -73.6293   22.5161  -80.2636 H         1 UNK         0.0814 
    101 H101      -74.4697   25.0612  -79.3611 H         1 UNK         0.3105 
    102 H102      -73.5427   28.3499  -80.3704 H         1 UNK         0.0547 
    103 H103      -75.4203   26.2064  -81.5443 H         1 UNK         0.0837 
    104 H104      -75.3494   27.9140  -81.9833 H         1 UNK         0.0837 
    105 H105      -74.0338   26.8501  -82.4121 H         1 UNK         0.0837 
    106 H106      -74.5456   27.0936  -78.2766 H         1 UNK         0.3020 
    107 H107      -76.1661   27.5539  -76.9296 H         1 UNK         0.1245 
    108 H108      -78.7131   28.8802  -78.0047 H         1 UNK         0.0781 
    109 H109      -77.3323   29.7556  -77.3877 H         1 UNK         0.0781 
    110 H110      -79.6005   30.7540  -75.5121 H         1 UNK         0.0836 
    111 H111      -77.8634   30.9408  -75.4885 H         1 UNK         0.0836 
    112 H112      -78.6563   26.4412  -77.7655 H         1 UNK         0.3022 
    113 H113      -79.0819   24.3557  -78.1368 H         1 UNK         0.0747 
    114 H114      -76.7299   22.6233  -79.0709 H         1 UNK         0.0793 
    115 H115      -78.4418   22.2973  -79.3356 H         1 UNK         0.0793 
    116 H116      -77.6805   23.6803  -80.1040 H         1 UNK         0.0793 
    117 H117      -77.6568   22.2374  -76.8369 H         1 UNK         0.3047 
    118 H118      -78.6149   21.5331  -74.8320 H         1 UNK         0.0822 
    119 H119      -77.0055   21.9120  -72.9328 H         1 UNK         0.0807 
    120 H120      -76.8423   23.5990  -73.4154 H         1 UNK         0.0807 
    121 H121      -76.3006   22.3147  -74.4888 H         1 UNK         0.0807 
    122 H122      -79.2329   23.4513  -72.6809 H         1 UNK         0.2946 
    123 H123      -82.7005   23.0568  -72.9072 H         1 UNK         0.1144 
    124 H124      -82.7093   21.9933  -70.6551 H         1 UNK         0.0793 
    125 H125      -81.0398   21.4656  -70.8741 H         1 UNK         0.0793 
    126 H126      -82.3155   20.8109  -71.8911 H         1 UNK         0.0793 
    127 H127      -80.8423   23.9142  -70.8273 H         1 UNK         0.2896 
@<TRIPOS>BOND
     1    1    2 1    
     2    1   67 1    
     3    1   68 1    
     4    1   69 1    
     5    2    3 2    
     6    2    4 am   BACKBONE|DICT|INTERRES
     7    4    5 1    
     8    4   70 1    
     9    5    6 1    
    10    5   65 1    
    11    5   71 1    
    12    6    7 1    
    13    6   72 1    
    14    6   73 1    
    15    7    8 1    
    16    8    9 1    
    17    8   74 1    
    18    8   75 1    
    19    9   10 ar   
    20    9   14 ar   
    21   10   11 ar   
    22   10   76 1    
    23   11   12 ar   
    24   11   48 1    
    25   12   13 ar   
    26   12   77 1    
    27   13   14 ar   
    28   13   15 1    
    29   14   78 1    
    30   15   16 1    
    31   15   79 1    
    32   15   80 1    
    33   16   17 1    
    34   17   18 1    
    35   17   81 1    
    36   17   82 1    
    37   18   19 1    
    38   18   22 1    
    39   18   83 1    
    40   19   20 am   BACKBONE|DICT|INTERRES
    41   19   21 2    
    42   20   84 1    
    43   20   85 1    
    44   22   23 am   BACKBONE|DICT|INTERRES
    45   22   86 1    
    46   23   24 2    
    47   23   25 1    
    48   25   26 1    
    49   25   27 1    
    50   25   87 1    
    51   26   88 1    
    52   26   89 1    
    53   26   90 1    
    54   27   28 am   BACKBONE|DICT|INTERRES
    55   27   91 1    
    56   28   29 2    
    57   28   30 1    
    58   30   31 1    
    59   30   32 1    
    60   30   92 1    
    61   31   93 1    
    62   31   94 1    
    63   31   95 1    
    64   32   33 am   BACKBONE|DICT|INTERRES
    65   32   96 1    
    66   33   34 2    
    67   33   35 1    
    68   35   36 1    
    69   35   37 1    
    70   35   97 1    
    71   36   98 1    
    72   36   99 1    
    73   36  100 1    
    74   37   38 am   BACKBONE|DICT|INTERRES
    75   37  101 1    
    76   38   39 2    
    77   38   40 1    
    78   40   41 1    
    79   40   42 1    
    80   40  102 1    
    81   41  103 1    
    82   41  104 1    
    83   41  105 1    
    84   42   43 am   BACKBONE|DICT|INTERRES
    85   42  106 1    
    86   43   44 2    
    87   43   45 1    
    88   45   46 1    
    89   45   49 1    
    90   45  107 1    
    91   46   47 1    
    92   46  108 1    
    93   46  109 1    
    94   47   48 1    
    95   48  110 1    
    96   48  111 1    
    97   49   50 am   BACKBONE|DICT|INTERRES
    98   49  112 1    
    99   50   51 2    
   100   50   52 1    
   101   52   53 1    
   102   52   54 1    
   103   52  113 1    
   104   53  114 1    
   105   53  115 1    
   106   53  116 1    
   107   54   55 am   BACKBONE|DICT|INTERRES
   108   54  117 1    
   109   55   56 2    
   110   55   57 1    
   111   57   58 1    
   112   57   59 1    
   113   57  118 1    
   114   58  119 1    
   115   58  120 1    
   116   58  121 1    
   117   59   60 am   BACKBONE|DICT|INTERRES
   118   59  122 1    
   119   60   61 2    
   120   60   62 1    
   121   62   63 1    
   122   62   64 1    
   123   62  123 1    
   124   63  124 1    
   125   63  125 1    
   126   63  126 1    
   127   64   65 am   BACKBONE|DICT|INTERRES
   128   64  127 1    
   129   65   66 2    
@<TRIPOS>SUBSTRUCTURE
     1 UNK         1 GROUP             0       ****    0 ROOT    
