@<TRIPOS>MOLECULE
3R135
127   129    1
SMALL
USER_CHARGES


@<TRIPOS>ATOM
      1 CA        -80.8686   26.3887  -69.4649 C.3       0 UNK        -0.1998 
      2 C         -81.9086   27.0237  -70.3758 C.2       0 UNK         0.4909 
      3 O         -82.6950   27.8546  -69.9204 O.2       0 UNK        -0.5240 
      4 N         -81.9204   26.6367  -71.6551 N.am      1 UNK        -0.4739 
      5 CA        -82.8851   27.0957  -72.6592 C.3       1 UNK         0.0864 
      6 C6        -82.6370   28.5413  -73.1749 C.3       11 UNK        -0.0881 
      7 S7        -80.9633   28.8229  -73.8528 S.3       11 UNK        -0.2682 
      8 C8        -80.1727   29.7456  -72.4986 C.3       11 UNK         0.0289 
      9 C9        -78.6836   29.4536  -72.4699 C.ar      11 UNK        -0.0687 
     10 C10       -78.2069   28.3578  -71.7456 C.ar      11 UNK        -0.0823 
     11 C11       -76.8494   28.0225  -71.7695 C.ar      11 UNK        -0.0830 
     12 C12       -75.9654   28.8284  -72.4938 C.ar      11 UNK        -0.1021 
     13 C13       -76.4250   29.9443  -73.1998 C.ar      11 UNK        -0.0753 
     14 C14       -77.7883   30.2510  -73.1885 C.ar      11 UNK        -0.0933 
     15 C15       -75.4477   30.7925  -73.9986 C.3       11 UNK         0.0166 
     16 S16       -74.5238   31.9185  -72.9104 S.3       11 UNK        -0.2615 
     17 C17       -73.4278   32.7948  -74.0852 C.3       11 UNK        -0.0865 
     18 CA        -72.5479   31.8898  -74.9948 C.3       10 UNK         0.0862 
     19 C         -71.5563   32.7526  -75.8300 C.2       10 UNK         0.5551 
     20 N         -70.2472   32.6160  -75.6589 N.am      10 UNK        -0.7319 
     21 O         -71.9875   33.5626  -76.6470 O.2       10 UNK        -0.5018 
     22 N         -71.9453   30.7764  -74.2420 N.am      10 UNK        -0.4509 
     23 C         -71.4359   29.6627  -74.7821 C.2       10 UNK         0.4899 
     24 O         -71.3009   29.4882  -75.9935 O.2       10 UNK        -0.4839 
     25 CA        -71.0053   28.5487  -73.8157 C.3       9 UNK         0.0222 
     26 CB        -71.4815   28.7424  -72.3575 C.3       9 UNK        -0.1966 
     27 N         -71.4851   27.2696  -74.3357 N.am      9 UNK        -0.4218 
     28 C         -70.9167   26.0801  -74.1053 C.2       9 UNK         0.5020 
     29 O         -69.9059   25.9326  -73.4157 O.2       9 UNK        -0.5274 
     30 CA        -71.5734   24.8341  -74.7260 C.3       8 UNK         0.0270 
     31 CB        -72.2151   23.9612  -73.6334 C.3       8 UNK        -0.1976 
     32 N         -72.5787   25.1497  -75.7461 N.am      8 UNK        -0.4313 
     33 C         -72.2957   25.3594  -77.0400 C.2       8 UNK         0.5041 
     34 O         -71.1501   25.3389  -77.4928 O.2       8 UNK        -0.5577 
     35 CA        -73.4665   25.6080  -78.0109 C.3       7 UNK         0.0284 
     36 CB        -73.7543   24.3379  -78.8284 C.3       7 UNK        -0.1958 
     37 N         -74.7047   26.0444  -77.3631 N.am      7 UNK        -0.4454 
     38 C         -74.8949   27.2515  -76.8153 C.2       7 UNK         0.5089 
     39 O         -74.0517   28.1460  -76.8184 O.2       7 UNK        -0.5125 
     40 CA        -76.2353   27.4852  -76.0993 C.3       6 UNK         0.0408 
     41 CB        -77.3208   27.9237  -77.0922 C.3       6 UNK        -0.1791 
     42 N         -76.7071   26.3329  -75.3272 N.am      6 UNK        -0.4762 
     43 C         -76.0208   25.7269  -74.3454 C.2       6 UNK         0.5007 
     44 O         -74.8669   26.0179  -74.0310 O.2       6 UNK        -0.5032 
     45 CA        -76.7377   24.5693  -73.6307 C.3       5 UNK         0.0783 
     46 C46       -77.8874   25.0824  -72.7224 C.3       11 UNK        -0.0857 
     47 S47       -77.4062   25.3438  -70.9809 S.3       11 UNK        -0.2512 
     48 C48       -76.3059   26.8067  -71.0196 C.3       11 UNK         0.0225 
     49 N         -77.2167   23.6159  -74.6314 N.am      5 UNK        -0.4615 
     50 C         -76.4369   22.7387  -75.2781 C.2       4 UNK         0.5053 
     51 O         -75.2512   22.5503  -75.0100 O.2       4 UNK        -0.5105 
     52 CA        -77.0792   21.9495  -76.4337 C.3       4 UNK         0.0263 
     53 CB        -77.6056   20.5957  -75.9315 C.3       4 UNK        -0.1981 
     54 N         -78.1655   22.6751  -77.0984 N.am      4 UNK        -0.4224 
     55 C         -78.0101   23.8071  -77.8005 C.2       3 UNK         0.4895 
     56 O         -76.9215   24.3397  -78.0108 O.2       3 UNK        -0.5091 
     57 CA        -79.2925   24.4892  -78.3066 C.3       3 UNK         0.0250 
     58 CB        -79.6850   23.9394  -79.6869 C.3       3 UNK        -0.1996 
     59 N         -80.4291   24.3685  -77.3856 N.am      3 UNK        -0.4254 
     60 C         -80.4492   24.8276  -76.1265 C.2       2 UNK         0.5004 
     61 O         -79.4912   25.3789  -75.5760 O.2       2 UNK        -0.5226 
     62 CA        -81.7306   24.5693  -75.3301 C.3       2 UNK         0.0269 
     63 CB        -81.7088   23.1605  -74.7102 C.3       2 UNK        -0.1926 
     64 N         -81.8390   25.5666  -74.2697 N.am      2 UNK        -0.4687 
     65 C         -82.9888   26.0607  -73.7923 C.2       1 UNK         0.5165 
     66 O         -84.1001   25.7003  -74.1837 O.2       1 UNK        -0.5079 
     67 H67       -80.2893   25.6227  -69.9795 H         1 UNK         0.0900 
     68 H68       -80.1790   27.1464  -69.0941 H         1 UNK         0.0900 
     69 H69       -81.3550   25.9232  -68.6081 H         1 UNK         0.0900 
     70 H70       -81.2867   25.9144  -71.9660 H         1 UNK         0.2959 
     71 H71       -83.8671   27.0935  -72.1797 H         1 UNK         0.1079 
     72 H72       -82.8242   29.2539  -72.3704 H         1 UNK         0.0837 
     73 H73       -83.3637   28.7933  -73.9495 H         1 UNK         0.0837 
     74 H74       -80.3559   30.8130  -72.6302 H         1 UNK         0.0685 
     75 H75       -80.6160   29.4712  -71.5407 H         1 UNK         0.0685 
     76 H76       -78.9027   27.7461  -71.1908 H         1 UNK         0.1434 
     77 H77       -74.9137   28.5806  -72.5213 H         1 UNK         0.1329 
     78 H78       -78.1557   31.0987  -73.7504 H         1 UNK         0.1335 
     79 H79       -74.7545   30.1346  -74.5239 H         1 UNK         0.0680 
     80 H80       -75.9705   31.3703  -74.7623 H         1 UNK         0.0680 
     81 H81       -74.0468   33.4520  -74.6992 H         1 UNK         0.1032 
     82 H82       -72.7928   33.4566  -73.4927 H         1 UNK         0.1032 
     83 H83       -73.2112   31.4345  -75.7325 H         1 UNK         0.0461 
     84 H84       -69.8891   31.9473  -74.9963 H         1 UNK         0.3453 
     85 H85       -69.6137   33.1777  -76.2055 H         1 UNK         0.3453 
     86 H86       -72.0143   30.8425  -73.2373 H         1 UNK         0.2984 
     87 H87       -69.9135   28.5446  -73.8243 H         1 UNK         0.0554 
     88 H88       -71.1603   27.9152  -71.7244 H         1 UNK         0.0847 
     89 H89       -72.5679   28.8027  -72.2901 H         1 UNK         0.0847 
     90 H90       -71.0653   29.6492  -71.9173 H         1 UNK         0.0847 
     91 H91       -72.2758   27.3197  -74.9664 H         1 UNK         0.3141 
     92 H92       -70.7759   24.2474  -75.1872 H         1 UNK         0.0743 
     93 H93       -72.9814   24.5012  -73.0774 H         1 UNK         0.0784 
     94 H94       -72.6736   23.0673  -74.0565 H         1 UNK         0.0784 
     95 H95       -71.4674   23.6296  -72.9118 H         1 UNK         0.0784 
     96 H96       -73.5369   25.2367  -75.4234 H         1 UNK         0.3213 
     97 H97       -73.1522   26.3941  -78.7009 H         1 UNK         0.0855 
     98 H98       -74.0978   23.5207  -78.1924 H         1 UNK         0.0814 
     99 H99       -72.8596   23.9942  -79.3494 H         1 UNK         0.0814 
    100 H100      -74.5195   24.5173  -79.5838 H         1 UNK         0.0814 
    101 H101      -75.4834   25.3882  -77.3739 H         1 UNK         0.3105 
    102 H102      -76.0864   28.2977  -75.3903 H         1 UNK         0.0547 
    103 H103      -77.0309   28.8433  -77.6019 H         1 UNK         0.0837 
    104 H104      -77.4921   27.1683  -77.8581 H         1 UNK         0.0837 
    105 H105      -78.2681   28.1162  -76.5874 H         1 UNK         0.0837 
    106 H106      -77.6571   26.0202  -75.5109 H         1 UNK         0.3020 
    107 H107      -75.9999   24.0558  -73.0091 H         1 UNK         0.1245 
    108 H108      -78.6847   24.3381  -72.6896 H         1 UNK         0.0781 
    109 H109      -78.3661   25.9790  -73.1197 H         1 UNK         0.0781 
    110 H110      -75.3475   26.4996  -71.4403 H         1 UNK         0.0836 
    111 H111      -76.0985   27.1054  -69.9915 H         1 UNK         0.0836 
    112 H112      -78.1618   23.7600  -74.9603 H         1 UNK         0.3022 
    113 H113      -76.2991   21.7624  -77.1750 H         1 UNK         0.0747 
    114 H114      -77.9900   19.9896  -76.7521 H         1 UNK         0.0793 
    115 H115      -76.8106   20.0221  -75.4527 H         1 UNK         0.0793 
    116 H116      -78.4050   20.7183  -75.1994 H         1 UNK         0.0793 
    117 H117      -79.0984   22.3067  -76.9849 H         1 UNK         0.3047 
    118 H118      -79.0759   25.5528  -78.4163 H         1 UNK         0.0822 
    119 H119      -80.5329   24.4826  -80.1046 H         1 UNK         0.0807 
    120 H120      -79.9511   22.8825  -79.6425 H         1 UNK         0.0807 
    121 H121      -78.8603   24.0383  -80.3945 H         1 UNK         0.0807 
    122 H122      -81.2547   23.9149  -77.7507 H         1 UNK         0.2946 
    123 H123      -82.5813   24.6608  -76.0099 H         1 UNK         0.1144 
    124 H124      -82.6218   22.9619  -74.1484 H         1 UNK         0.0793 
    125 H125      -80.8651   23.0317  -74.0308 H         1 UNK         0.0793 
    126 H126      -81.6316   22.3909  -75.4792 H         1 UNK         0.0793 
    127 H127      -80.9609   25.9998  -74.0107 H         1 UNK         0.2896 
@<TRIPOS>BOND
     1    1    2 1    
     2    1   67 1    
     3    1   68 1    
     4    1   69 1    
     5    2    3 2    
     6    2    4 am   BACKBONE|DICT|INTERRES
     7    4    5 1    
     8    4   70 1    
     9    5    6 1    
    10    5   65 1    
    11    5   71 1    
    12    6    7 1    
    13    6   72 1    
    14    6   73 1    
    15    7    8 1    
    16    8    9 1    
    17    8   74 1    
    18    8   75 1    
    19    9   10 ar   
    20    9   14 ar   
    21   10   11 ar   
    22   10   76 1    
    23   11   12 ar   
    24   11   48 1    
    25   12   13 ar   
    26   12   77 1    
    27   13   14 ar   
    28   13   15 1    
    29   14   78 1    
    30   15   16 1    
    31   15   79 1    
    32   15   80 1    
    33   16   17 1    
    34   17   18 1    
    35   17   81 1    
    36   17   82 1    
    37   18   19 1    
    38   18   22 1    
    39   18   83 1    
    40   19   20 am   BACKBONE|DICT|INTERRES
    41   19   21 2    
    42   20   84 1    
    43   20   85 1    
    44   22   23 am   BACKBONE|DICT|INTERRES
    45   22   86 1    
    46   23   24 2    
    47   23   25 1    
    48   25   26 1    
    49   25   27 1    
    50   25   87 1    
    51   26   88 1    
    52   26   89 1    
    53   26   90 1    
    54   27   28 am   BACKBONE|DICT|INTERRES
    55   27   91 1    
    56   28   29 2    
    57   28   30 1    
    58   30   31 1    
    59   30   32 1    
    60   30   92 1    
    61   31   93 1    
    62   31   94 1    
    63   31   95 1    
    64   32   33 am   BACKBONE|DICT|INTERRES
    65   32   96 1    
    66   33   34 2    
    67   33   35 1    
    68   35   36 1    
    69   35   37 1    
    70   35   97 1    
    71   36   98 1    
    72   36   99 1    
    73   36  100 1    
    74   37   38 am   BACKBONE|DICT|INTERRES
    75   37  101 1    
    76   38   39 2    
    77   38   40 1    
    78   40   41 1    
    79   40   42 1    
    80   40  102 1    
    81   41  103 1    
    82   41  104 1    
    83   41  105 1    
    84   42   43 am   BACKBONE|DICT|INTERRES
    85   42  106 1    
    86   43   44 2    
    87   43   45 1    
    88   45   46 1    
    89   45   49 1    
    90   45  107 1    
    91   46   47 1    
    92   46  108 1    
    93   46  109 1    
    94   47   48 1    
    95   48  110 1    
    96   48  111 1    
    97   49   50 am   BACKBONE|DICT|INTERRES
    98   49  112 1    
    99   50   51 2    
   100   50   52 1    
   101   52   53 1    
   102   52   54 1    
   103   52  113 1    
   104   53  114 1    
   105   53  115 1    
   106   53  116 1    
   107   54   55 am   BACKBONE|DICT|INTERRES
   108   54  117 1    
   109   55   56 2    
   110   55   57 1    
   111   57   58 1    
   112   57   59 1    
   113   57  118 1    
   114   58  119 1    
   115   58  120 1    
   116   58  121 1    
   117   59   60 am   BACKBONE|DICT|INTERRES
   118   59  122 1    
   119   60   61 2    
   120   60   62 1    
   121   62   63 1    
   122   62   64 1    
   123   62  123 1    
   124   63  124 1    
   125   63  125 1    
   126   63  126 1    
   127   64   65 am   BACKBONE|DICT|INTERRES
   128   64  127 1    
   129   65   66 2    
@<TRIPOS>SUBSTRUCTURE
     1 UNK         1 GROUP             0       ****    0 ROOT    
