@<TRIPOS>MOLECULE
3R135
127   129    1
SMALL
USER_CHARGES


@<TRIPOS>ATOM
      1 CA        -80.8768   30.0792  -76.2066 C.3       0 UNK        -0.1998 
      2 C         -80.5793   29.0689  -75.1095 C.2       0 UNK         0.4909 
      3 O         -79.5259   28.4353  -75.1321 O.2       0 UNK        -0.5240 
      4 N         -81.5008   28.9071  -74.1523 N.am      1 UNK        -0.4739 
      5 CA        -81.3899   27.9809  -73.0192 C.3       1 UNK         0.0864 
      6 C6        -82.1758   28.4881  -71.7802 C.3       11 UNK        -0.0881 
      7 S7        -81.6661   30.1563  -71.2348 S.3       11 UNK        -0.2682 
      8 C8        -80.7068   29.8053  -69.7271 C.3       11 UNK         0.0289 
      9 C9        -79.3082   29.2999  -70.0486 C.ar      11 UNK        -0.0687 
     10 C10       -79.0276   27.9300  -70.0250 C.ar      11 UNK        -0.0823 
     11 C11       -77.7434   27.4676  -70.3278 C.ar      11 UNK        -0.0830 
     12 C12       -76.7302   28.3838  -70.6176 C.ar      11 UNK        -0.1021 
     13 C13       -77.0028   29.7514  -70.6639 C.ar      11 UNK        -0.0753 
     14 C14       -78.2926   30.2068  -70.3731 C.ar      11 UNK        -0.0933 
     15 C15       -75.8990   30.7191  -71.0555 C.3       11 UNK         0.0166 
     16 S16       -75.5007   30.5638  -72.8257 S.3       11 UNK        -0.2615 
     17 C17       -74.0696   31.6897  -72.9575 C.3       11 UNK        -0.0865 
     18 CA        -72.7151   30.9830  -73.2391 C.3       10 UNK         0.0862 
     19 C         -72.1601   30.1684  -72.0337 C.2       10 UNK         0.5551 
     20 N         -71.5215   29.0230  -72.2456 N.am      10 UNK        -0.7319 
     21 O         -72.2820   30.5937  -70.8877 O.2       10 UNK        -0.5018 
     22 N         -72.7507   30.2161  -74.4954 N.am      10 UNK        -0.4509 
     23 C         -71.8951   30.3668  -75.5120 C.2       10 UNK         0.4899 
     24 O         -71.0135   31.2277  -75.5474 O.2       10 UNK        -0.4839 
     25 CA        -72.0485   29.3738  -76.6802 C.3       9 UNK         0.0222 
     26 CB        -70.9147   29.4936  -77.7197 C.3       9 UNK        -0.1966 
     27 N         -72.1895   27.9750  -76.2568 N.am      9 UNK        -0.4218 
     28 C         -71.3695   27.2643  -75.4652 C.2       9 UNK         0.5020 
     29 O         -70.4106   27.7476  -74.8618 O.2       9 UNK        -0.5274 
     30 CA        -71.6562   25.7575  -75.3014 C.3       8 UNK         0.0270 
     31 CB        -72.1708   25.4544  -73.8839 C.3       8 UNK        -0.1976 
     32 N         -72.5974   25.2198  -76.2897 N.am      8 UNK        -0.4313 
     33 C         -72.3281   25.0464  -77.5921 C.2       8 UNK         0.5041 
     34 O         -71.2182   25.2342  -78.0914 O.2       8 UNK        -0.5577 
     35 CA        -73.5018   24.6363  -78.5008 C.3       7 UNK         0.0284 
     36 CB        -73.6612   23.1082  -78.5298 C.3       7 UNK        -0.1958 
     37 N         -74.7721   25.2651  -78.1201 N.am      7 UNK        -0.4454 
     38 C         -75.0072   26.5861  -78.1576 C.2       7 UNK         0.5089 
     39 O         -74.1953   27.4130  -78.5711 O.2       7 UNK        -0.5125 
     40 CA        -76.3442   27.0789  -77.5803 C.3       6 UNK         0.0408 
     41 CB        -77.4852   26.9039  -78.5936 C.3       6 UNK        -0.1791 
     42 N         -76.6888   26.4076  -76.3280 N.am      6 UNK        -0.4762 
     43 C         -75.9874   26.4951  -75.1880 C.2       6 UNK         0.5007 
     44 O         -74.9971   27.2132  -75.0461 O.2       6 UNK        -0.5032 
     45 CA        -76.4410   25.5817  -74.0321 C.3       5 UNK         0.0783 
     46 C46       -77.6082   26.2300  -73.2585 C.3       11 UNK        -0.0857 
     47 S47       -78.2268   25.2136  -71.8686 S.3       11 UNK        -0.2512 
     48 C48       -77.4536   25.9776  -70.4055 C.3       11 UNK         0.0225 
     49 N         -76.7783   24.2418  -74.5194 N.am      5 UNK        -0.4615 
     50 C         -75.8979   23.3632  -75.0125 C.2       4 UNK         0.5053 
     51 O         -74.6900   23.5799  -75.0922 O.2       4 UNK        -0.5105 
     52 CA        -76.4673   22.0322  -75.5313 C.3       4 UNK         0.0263 
     53 CB        -76.6297   21.0304  -74.3774 C.3       4 UNK        -0.1981 
     54 N         -77.7492   22.1974  -76.2223 N.am      4 UNK        -0.4224 
     55 C         -77.9022   22.8428  -77.3880 C.2       3 UNK         0.4895 
     56 O         -76.9701   23.3256  -78.0309 O.2       3 UNK        -0.5091 
     57 CA        -79.3458   23.0265  -77.8925 C.3       3 UNK         0.0250 
     58 CB        -79.8243   21.7709  -78.6385 C.3       3 UNK        -0.1996 
     59 N         -80.2990   23.3655  -76.8264 N.am      3 UNK        -0.4254 
     60 C         -80.2022   24.4561  -76.0535 C.2       2 UNK         0.5004 
     61 O         -79.2999   25.2881  -76.1713 O.2       2 UNK        -0.5226 
     62 CA        -81.2440   24.6245  -74.9391 C.3       2 UNK         0.0269 
     63 CB        -81.0816   23.5183  -73.8745 C.3       2 UNK        -0.1926 
     64 N         -81.0555   25.9491  -74.3474 N.am      2 UNK        -0.4687 
     65 C         -81.8352   26.5661  -73.4550 C.2       1 UNK         0.5165 
     66 O         -82.8789   26.0798  -73.0148 O.2       1 UNK        -0.5079 
     67 H67       -81.8447   30.5602  -76.0672 H         1 UNK         0.0900 
     68 H68       -80.1107   30.8540  -76.2183 H         1 UNK         0.0900 
     69 H69       -80.8781   29.5863  -77.1784 H         1 UNK         0.0900 
     70 H70       -82.3537   29.4470  -74.1871 H         1 UNK         0.2959 
     71 H71       -80.3393   27.9069  -72.7264 H         1 UNK         0.1079 
     72 H72       -82.0682   27.7880  -70.9499 H         1 UNK         0.0837 
     73 H73       -83.2447   28.5292  -71.9983 H         1 UNK         0.0837 
     74 H74       -81.2449   29.0930  -69.0997 H         1 UNK         0.0685 
     75 H75       -80.6313   30.7231  -69.1420 H         1 UNK         0.0685 
     76 H76       -79.8118   27.2205  -69.7990 H         1 UNK         0.1434 
     77 H77       -75.7367   28.0326  -70.8623 H         1 UNK         0.1329 
     78 H78       -78.5118   31.2652  -70.4100 H         1 UNK         0.1335 
     79 H79       -75.0100   30.5114  -70.4585 H         1 UNK         0.0680 
     80 H80       -76.1902   31.7480  -70.8384 H         1 UNK         0.0680 
     81 H81       -73.9975   32.3094  -72.0617 H         1 UNK         0.1032 
     82 H82       -74.2793   32.3891  -73.7681 H         1 UNK         0.1032 
     83 H83       -71.9895   31.7908  -73.3462 H         1 UNK         0.0461 
     84 H84       -71.1567   28.5136  -71.4569 H         1 UNK         0.3453 
     85 H85       -71.3315   28.7010  -73.1860 H         1 UNK         0.3453 
     86 H86       -73.4348   29.4716  -74.5343 H         1 UNK         0.2984 
     87 H87       -72.9825   29.6348  -77.1798 H         1 UNK         0.0554 
     88 H88       -70.8612   30.5029  -78.1296 H         1 UNK         0.0847 
     89 H89       -71.0737   28.8134  -78.5567 H         1 UNK         0.0847 
     90 H90       -69.9418   29.2655  -77.2827 H         1 UNK         0.0847 
     91 H91       -72.9764   27.4857  -76.6653 H         1 UNK         0.3141 
     92 H92       -70.7053   25.2366  -75.4311 H         1 UNK         0.0743 
     93 H93       -71.4516   25.7776  -73.1302 H         1 UNK         0.0784 
     94 H94       -73.1096   25.9663  -73.6750 H         1 UNK         0.0784 
     95 H95       -72.3315   24.3859  -73.7393 H         1 UNK         0.0784 
     96 H96       -73.5126   24.9449  -75.9441 H         1 UNK         0.3213 
     97 H97       -73.2629   24.9699  -79.5129 H         1 UNK         0.0855 
     98 H98       -73.9103   22.7084  -77.5471 H         1 UNK         0.0814 
     99 H99       -72.7374   22.6264  -78.8527 H         1 UNK         0.0814 
    100 H100      -74.4451   22.8038  -79.2235 H         1 UNK         0.0814 
    101 H101      -75.5226   24.6447  -77.8276 H         1 UNK         0.3105 
    102 H102      -76.2436   28.1447  -77.3649 H         1 UNK         0.0547 
    103 H103      -78.4218   27.3045  -78.2045 H         1 UNK         0.0837 
    104 H104      -77.6498   25.8553  -78.8421 H         1 UNK         0.0837 
    105 H105      -77.2661   27.4306  -79.5231 H         1 UNK         0.0837 
    106 H106      -77.5416   25.8502  -76.3289 H         1 UNK         0.3020 
    107 H107      -75.5955   25.4832  -73.3477 H         1 UNK         0.1245 
    108 H108      -78.4472   26.3920  -73.9304 H         1 UNK         0.0781 
    109 H109      -77.3279   27.2257  -72.9195 H         1 UNK         0.0781 
    110 H110      -76.3791   25.7896  -70.4331 H         1 UNK         0.0836 
    111 H111      -77.8276   25.4860  -69.5065 H         1 UNK         0.0836 
    112 H112      -77.7576   24.0025  -74.5127 H         1 UNK         0.3022 
    113 H113      -75.7503   21.6191  -76.2439 H         1 UNK         0.0747 
    114 H114      -76.9604   20.0570  -74.7403 H         1 UNK         0.0793 
    115 H115      -75.6814   20.8762  -73.8602 H         1 UNK         0.0793 
    116 H116      -77.3518   21.3769  -73.6367 H         1 UNK         0.0793 
    117 H117      -78.5698   21.8274  -75.7658 H         1 UNK         0.3047 
    118 H118      -79.3372   23.8585  -78.6000 H         1 UNK         0.0822 
    119 H119      -80.8044   21.9269  -79.0898 H         1 UNK         0.0807 
    120 H120      -79.8922   20.9059  -77.9775 H         1 UNK         0.0807 
    121 H121      -79.1368   21.5115  -79.4451 H         1 UNK         0.0807 
    122 H122      -81.0642   22.7230  -76.6778 H         1 UNK         0.2946 
    123 H123      -82.2410   24.5768  -75.3818 H         1 UNK         0.1144 
    124 H124      -80.0818   23.5194  -73.4409 H         1 UNK         0.0793 
    125 H125      -81.2495   22.5291  -74.3012 H         1 UNK         0.0793 
    126 H126      -81.7958   23.6314  -73.0593 H         1 UNK         0.0793 
    127 H127      -80.2611   26.4571  -74.7309 H         1 UNK         0.2896 
@<TRIPOS>BOND
     1    1    2 1    
     2    1   67 1    
     3    1   68 1    
     4    1   69 1    
     5    2    3 2    
     6    2    4 am   BACKBONE|DICT|INTERRES
     7    4    5 1    
     8    4   70 1    
     9    5    6 1    
    10    5   65 1    
    11    5   71 1    
    12    6    7 1    
    13    6   72 1    
    14    6   73 1    
    15    7    8 1    
    16    8    9 1    
    17    8   74 1    
    18    8   75 1    
    19    9   10 ar   
    20    9   14 ar   
    21   10   11 ar   
    22   10   76 1    
    23   11   12 ar   
    24   11   48 1    
    25   12   13 ar   
    26   12   77 1    
    27   13   14 ar   
    28   13   15 1    
    29   14   78 1    
    30   15   16 1    
    31   15   79 1    
    32   15   80 1    
    33   16   17 1    
    34   17   18 1    
    35   17   81 1    
    36   17   82 1    
    37   18   19 1    
    38   18   22 1    
    39   18   83 1    
    40   19   20 am   BACKBONE|DICT|INTERRES
    41   19   21 2    
    42   20   84 1    
    43   20   85 1    
    44   22   23 am   BACKBONE|DICT|INTERRES
    45   22   86 1    
    46   23   24 2    
    47   23   25 1    
    48   25   26 1    
    49   25   27 1    
    50   25   87 1    
    51   26   88 1    
    52   26   89 1    
    53   26   90 1    
    54   27   28 am   BACKBONE|DICT|INTERRES
    55   27   91 1    
    56   28   29 2    
    57   28   30 1    
    58   30   31 1    
    59   30   32 1    
    60   30   92 1    
    61   31   93 1    
    62   31   94 1    
    63   31   95 1    
    64   32   33 am   BACKBONE|DICT|INTERRES
    65   32   96 1    
    66   33   34 2    
    67   33   35 1    
    68   35   36 1    
    69   35   37 1    
    70   35   97 1    
    71   36   98 1    
    72   36   99 1    
    73   36  100 1    
    74   37   38 am   BACKBONE|DICT|INTERRES
    75   37  101 1    
    76   38   39 2    
    77   38   40 1    
    78   40   41 1    
    79   40   42 1    
    80   40  102 1    
    81   41  103 1    
    82   41  104 1    
    83   41  105 1    
    84   42   43 am   BACKBONE|DICT|INTERRES
    85   42  106 1    
    86   43   44 2    
    87   43   45 1    
    88   45   46 1    
    89   45   49 1    
    90   45  107 1    
    91   46   47 1    
    92   46  108 1    
    93   46  109 1    
    94   47   48 1    
    95   48  110 1    
    96   48  111 1    
    97   49   50 am   BACKBONE|DICT|INTERRES
    98   49  112 1    
    99   50   51 2    
   100   50   52 1    
   101   52   53 1    
   102   52   54 1    
   103   52  113 1    
   104   53  114 1    
   105   53  115 1    
   106   53  116 1    
   107   54   55 am   BACKBONE|DICT|INTERRES
   108   54  117 1    
   109   55   56 2    
   110   55   57 1    
   111   57   58 1    
   112   57   59 1    
   113   57  118 1    
   114   58  119 1    
   115   58  120 1    
   116   58  121 1    
   117   59   60 am   BACKBONE|DICT|INTERRES
   118   59  122 1    
   119   60   61 2    
   120   60   62 1    
   121   62   63 1    
   122   62   64 1    
   123   62  123 1    
   124   63  124 1    
   125   63  125 1    
   126   63  126 1    
   127   64   65 am   BACKBONE|DICT|INTERRES
   128   64  127 1    
   129   65   66 2    
@<TRIPOS>SUBSTRUCTURE
     1 UNK         1 GROUP             0       ****    0 ROOT    
