@<TRIPOS>MOLECULE
3R135
127   129    1
SMALL
USER_CHARGES


@<TRIPOS>ATOM
      1 CA        -80.9736   21.7744  -73.0995 C.3       0 UNK        -0.1998 
      2 C         -81.3907   23.2313  -73.2261 C.2       0 UNK         0.4909 
      3 O         -82.1076   23.5834  -74.1627 O.2       0 UNK        -0.5240 
      4 N         -80.9315   24.0738  -72.2912 N.am      1 UNK        -0.4739 
      5 CA        -81.1797   25.5181  -72.1865 C.3       1 UNK         0.0864 
      6 C6        -80.4697   26.0670  -70.9222 C.3       11 UNK        -0.0881 
      7 S7        -80.9485   27.7687  -70.4814 S.3       11 UNK        -0.2682 
      8 C8        -79.4032   28.3777  -69.7262 C.3       11 UNK         0.0289 
      9 C9        -78.3206   28.6747  -70.7571 C.ar      11 UNK        -0.0687 
     10 C10       -78.5012   29.7190  -71.6695 C.ar      11 UNK        -0.0823 
     11 C11       -77.5116   30.0256  -72.6070 C.ar      11 UNK        -0.0830 
     12 C12       -76.3169   29.3039  -72.5911 C.ar      11 UNK        -0.1021 
     13 C13       -76.1350   28.2272  -71.7229 C.ar      11 UNK        -0.0753 
     14 C14       -77.1406   27.9202  -70.7990 C.ar      11 UNK        -0.0933 
     15 C15       -74.9026   27.3411  -71.8663 C.3       11 UNK         0.0166 
     16 S16       -73.7557   27.4172  -70.4520 S.3       11 UNK        -0.2615 
     17 C17       -72.6640   28.8835  -70.6265 C.3       11 UNK        -0.0865 
     18 CA        -72.9018   29.8972  -71.7786 C.3       10 UNK         0.0862 
     19 C         -72.1046   31.2049  -71.5059 C.2       10 UNK         0.5551 
     20 N         -72.7275   32.1929  -70.8779 N.am      10 UNK        -0.7319 
     21 O         -70.9185   31.3105  -71.8135 O.2       10 UNK        -0.5018 
     22 N         -72.5799   29.3345  -73.1003 N.am      10 UNK        -0.4509 
     23 C         -72.8532   29.9279  -74.2692 C.2       10 UNK         0.4899 
     24 O         -73.5069   30.9666  -74.3625 O.2       10 UNK        -0.4839 
     25 CA        -72.3320   29.2736  -75.5637 C.3       9 UNK         0.0222 
     26 CB        -70.9472   29.8377  -75.9401 C.3       9 UNK        -0.1966 
     27 N         -72.3425   27.8005  -75.5924 N.am      9 UNK        -0.4218 
     28 C         -71.5880   26.9506  -74.8804 C.2       9 UNK         0.5020 
     29 O         -70.7924   27.3164  -74.0136 O.2       9 UNK        -0.5274 
     30 CA        -71.7314   25.4439  -75.1509 C.3       8 UNK         0.0270 
     31 CB        -72.0636   24.6937  -73.8468 C.3       8 UNK        -0.1976 
     32 N         -72.7563   25.1127  -76.1474 N.am      8 UNK        -0.4313 
     33 C         -72.5225   24.4962  -77.3129 C.2       8 UNK         0.5041 
     34 O         -71.3972   24.3297  -77.7861 O.2       8 UNK        -0.5577 
     35 CA        -73.7362   23.9034  -78.0505 C.3       7 UNK         0.0284 
     36 CB        -74.2271   22.6339  -77.3347 C.3       7 UNK        -0.1958 
     37 N         -74.8555   24.8332  -78.2100 N.am      7 UNK        -0.4454 
     38 C         -74.9132   25.7879  -79.1485 C.2       7 UNK         0.5089 
     39 O         -74.0020   26.0250  -79.9422 O.2       7 UNK        -0.5125 
     40 CA        -76.2112   26.6165  -79.2250 C.3       6 UNK         0.0408 
     41 CB        -77.2906   25.8725  -80.0268 C.3       6 UNK        -0.1791 
     42 N         -76.7393   26.9807  -77.9087 N.am      6 UNK        -0.4762 
     43 C         -76.1030   27.7871  -77.0480 C.2       6 UNK         0.5007 
     44 O         -75.0372   28.3465  -77.3024 O.2       6 UNK        -0.5032 
     45 CA        -76.7212   27.9401  -75.6469 C.3       5 UNK         0.0783 
     46 C46       -77.8410   29.0163  -75.6075 C.3       11 UNK        -0.0857 
     47 S47       -77.1676   30.6927  -75.3337 S.3       11 UNK        -0.2512 
     48 C48       -77.7586   31.1134  -73.6503 C.3       11 UNK         0.0225 
     49 N         -77.1610   26.6562  -75.0958 N.am      5 UNK        -0.4615 
     50 C         -76.3621   25.6096  -74.8510 C.2       4 UNK         0.5053 
     51 O         -75.1422   25.6444  -74.9798 O.2       4 UNK        -0.5105 
     52 CA        -77.0310   24.2819  -74.4623 C.3       4 UNK         0.0263 
     53 CB        -77.2320   24.1777  -72.9426 C.3       4 UNK        -0.1981 
     54 N         -78.3030   24.1003  -75.1643 N.am      4 UNK        -0.4224 
     55 C         -78.3980   23.8533  -76.4800 C.2       3 UNK         0.4895 
     56 O         -77.4243   23.6551  -77.2061 O.2       3 UNK        -0.5091 
     57 CA        -79.8040   23.8877  -77.1024 C.3       3 UNK         0.0250 
     58 CB        -80.4544   22.4965  -77.0724 C.3       3 UNK        -0.1996 
     59 N         -80.6777   24.8660  -76.4479 N.am      3 UNK        -0.4254 
     60 C         -80.5376   26.1936  -76.5863 C.2       2 UNK         0.5004 
     61 O         -79.7051   26.7144  -77.3293 O.2       2 UNK        -0.5226 
     62 CA        -81.4324   27.0912  -75.7097 C.3       2 UNK         0.0269 
     63 CB        -82.7631   27.3840  -76.4197 C.3       2 UNK        -0.1926 
     64 N         -81.6988   26.5293  -74.3796 N.am      2 UNK        -0.4687 
     65 C         -80.7495   26.2576  -73.4728 C.2       1 UNK         0.5165 
     66 O         -79.5597   26.5027  -73.6601 O.2       1 UNK        -0.5079 
     67 H67       -80.1134   21.5699  -73.7360 H         1 UNK         0.0900 
     68 H68       -81.7893   21.1196  -73.4052 H         1 UNK         0.0900 
     69 H69       -80.7072   21.5204  -72.0736 H         1 UNK         0.0900 
     70 H70       -80.3409   23.6964  -71.5641 H         1 UNK         0.2959 
     71 H71       -82.2557   25.6534  -72.0584 H         1 UNK         0.1079 
     72 H72       -80.7114   25.4418  -70.0610 H         1 UNK         0.0837 
     73 H73       -79.3862   26.0071  -71.0354 H         1 UNK         0.0837 
     74 H74       -79.0523   27.6550  -68.9877 H         1 UNK         0.0685 
     75 H75       -79.6224   29.2930  -69.1747 H         1 UNK         0.0685 
     76 H76       -79.4251   30.2810  -71.6562 H         1 UNK         0.1434 
     77 H77       -75.5454   29.5518  -73.3027 H         1 UNK         0.1329 
     78 H78       -77.0055   27.0885  -70.1215 H         1 UNK         0.1335 
     79 H79       -74.3794   27.5248  -72.8031 H         1 UNK         0.0680 
     80 H80       -75.2478   26.3102  -71.9425 H         1 UNK         0.0680 
     81 H81       -72.7351   29.4012  -69.6675 H         1 UNK         0.1032 
     82 H82       -71.6358   28.5192  -70.6729 H         1 UNK         0.1032 
     83 H83       -73.9558   30.1663  -71.7728 H         1 UNK         0.0461 
     84 H84       -72.2222   33.0417  -70.6769 H         1 UNK         0.3453 
     85 H85       -73.6968   32.1129  -70.6123 H         1 UNK         0.3453 
     86 H86       -71.9675   28.5245  -73.1217 H         1 UNK         0.2984 
     87 H87       -73.0158   29.5833  -76.3536 H         1 UNK         0.0554 
     88 H88       -70.9854   30.9234  -76.0378 H         1 UNK         0.0847 
     89 H89       -70.6012   29.4391  -76.8937 H         1 UNK         0.0847 
     90 H90       -70.1929   29.6110  -75.1862 H         1 UNK         0.0847 
     91 H91       -72.9986   27.3971  -76.2487 H         1 UNK         0.3141 
     92 H92       -70.7521   25.1017  -75.4908 H         1 UNK         0.0743 
     93 H93       -71.2870   24.8440  -73.0957 H         1 UNK         0.0784 
     94 H94       -73.0046   25.0345  -73.4130 H         1 UNK         0.0784 
     95 H95       -72.1426   23.6198  -74.0164 H         1 UNK         0.0784 
     96 H96       -73.7211   25.2359  -75.8314 H         1 UNK         0.3213 
     97 H97       -73.3985   23.6058  -79.0460 H         1 UNK         0.0855 
     98 H98       -74.6046   22.8522  -76.3355 H         1 UNK         0.0814 
     99 H99       -73.4198   21.9082  -77.2274 H         1 UNK         0.0814 
    100 H100      -75.0271   22.1483  -77.8939 H         1 UNK         0.0814 
    101 H101      -75.6796   24.6640  -77.6423 H         1 UNK         0.3105 
    102 H102      -75.9809   27.5430  -79.7552 H         1 UNK         0.0547 
    103 H103      -77.5682   24.9287  -79.5576 H         1 UNK         0.0837 
    104 H104      -78.1945   26.4733  -80.1286 H         1 UNK         0.0837 
    105 H105      -76.9380   25.6431  -81.0332 H         1 UNK         0.0837 
    106 H106      -77.6426   26.6010  -77.6433 H         1 UNK         0.3020 
    107 H107      -75.8967   28.2573  -75.0113 H         1 UNK         0.1245 
    108 H108      -78.5515   28.7974  -74.8094 H         1 UNK         0.0781 
    109 H109      -78.4334   29.0165  -76.5244 H         1 UNK         0.0781 
    110 H110      -77.2666   32.0306  -73.3247 H         1 UNK         0.0836 
    111 H111      -78.8241   31.3399  -73.7142 H         1 UNK         0.0836 
    112 H112      -78.1418   26.5805  -74.8387 H         1 UNK         0.3022 
    113 H113      -76.3642   23.4715  -74.7634 H         1 UNK         0.0747 
    114 H114      -76.2693   24.1455  -72.4314 H         1 UNK         0.0793 
    115 H115      -77.7701   23.2694  -72.6718 H         1 UNK         0.0793 
    116 H116      -77.7791   25.0292  -72.5407 H         1 UNK         0.0793 
    117 H117      -79.1419   24.3276  -74.6516 H         1 UNK         0.3047 
    118 H118      -79.6905   24.1802  -78.1487 H         1 UNK         0.0822 
    119 H119      -79.8303   21.7645  -77.5871 H         1 UNK         0.0807 
    120 H120      -81.4238   22.5025  -77.5710 H         1 UNK         0.0807 
    121 H121      -80.6049   22.1375  -76.0553 H         1 UNK         0.0807 
    122 H122      -81.3644   24.5092  -75.7889 H         1 UNK         0.2946 
    123 H123      -80.9033   28.0365  -75.5704 H         1 UNK         0.1144 
    124 H124      -82.5914   27.8208  -77.4046 H         1 UNK         0.0793 
    125 H125      -83.3673   28.0933  -75.8537 H         1 UNK         0.0793 
    126 H126      -83.3531   26.4778  -76.5629 H         1 UNK         0.0793 
    127 H127      -82.6489   26.2434  -74.1884 H         1 UNK         0.2896 
@<TRIPOS>BOND
     1    1    2 1    
     2    1   67 1    
     3    1   68 1    
     4    1   69 1    
     5    2    3 2    
     6    2    4 am   BACKBONE|DICT|INTERRES
     7    4    5 1    
     8    4   70 1    
     9    5    6 1    
    10    5   65 1    
    11    5   71 1    
    12    6    7 1    
    13    6   72 1    
    14    6   73 1    
    15    7    8 1    
    16    8    9 1    
    17    8   74 1    
    18    8   75 1    
    19    9   10 ar   
    20    9   14 ar   
    21   10   11 ar   
    22   10   76 1    
    23   11   12 ar   
    24   11   48 1    
    25   12   13 ar   
    26   12   77 1    
    27   13   14 ar   
    28   13   15 1    
    29   14   78 1    
    30   15   16 1    
    31   15   79 1    
    32   15   80 1    
    33   16   17 1    
    34   17   18 1    
    35   17   81 1    
    36   17   82 1    
    37   18   19 1    
    38   18   22 1    
    39   18   83 1    
    40   19   20 am   BACKBONE|DICT|INTERRES
    41   19   21 2    
    42   20   84 1    
    43   20   85 1    
    44   22   23 am   BACKBONE|DICT|INTERRES
    45   22   86 1    
    46   23   24 2    
    47   23   25 1    
    48   25   26 1    
    49   25   27 1    
    50   25   87 1    
    51   26   88 1    
    52   26   89 1    
    53   26   90 1    
    54   27   28 am   BACKBONE|DICT|INTERRES
    55   27   91 1    
    56   28   29 2    
    57   28   30 1    
    58   30   31 1    
    59   30   32 1    
    60   30   92 1    
    61   31   93 1    
    62   31   94 1    
    63   31   95 1    
    64   32   33 am   BACKBONE|DICT|INTERRES
    65   32   96 1    
    66   33   34 2    
    67   33   35 1    
    68   35   36 1    
    69   35   37 1    
    70   35   97 1    
    71   36   98 1    
    72   36   99 1    
    73   36  100 1    
    74   37   38 am   BACKBONE|DICT|INTERRES
    75   37  101 1    
    76   38   39 2    
    77   38   40 1    
    78   40   41 1    
    79   40   42 1    
    80   40  102 1    
    81   41  103 1    
    82   41  104 1    
    83   41  105 1    
    84   42   43 am   BACKBONE|DICT|INTERRES
    85   42  106 1    
    86   43   44 2    
    87   43   45 1    
    88   45   46 1    
    89   45   49 1    
    90   45  107 1    
    91   46   47 1    
    92   46  108 1    
    93   46  109 1    
    94   47   48 1    
    95   48  110 1    
    96   48  111 1    
    97   49   50 am   BACKBONE|DICT|INTERRES
    98   49  112 1    
    99   50   51 2    
   100   50   52 1    
   101   52   53 1    
   102   52   54 1    
   103   52  113 1    
   104   53  114 1    
   105   53  115 1    
   106   53  116 1    
   107   54   55 am   BACKBONE|DICT|INTERRES
   108   54  117 1    
   109   55   56 2    
   110   55   57 1    
   111   57   58 1    
   112   57   59 1    
   113   57  118 1    
   114   58  119 1    
   115   58  120 1    
   116   58  121 1    
   117   59   60 am   BACKBONE|DICT|INTERRES
   118   59  122 1    
   119   60   61 2    
   120   60   62 1    
   121   62   63 1    
   122   62   64 1    
   123   62  123 1    
   124   63  124 1    
   125   63  125 1    
   126   63  126 1    
   127   64   65 am   BACKBONE|DICT|INTERRES
   128   64  127 1    
   129   65   66 2    
@<TRIPOS>SUBSTRUCTURE
     1 UNK         1 GROUP             0       ****    0 ROOT    
