@<TRIPOS>MOLECULE
3R135
127   129    1
SMALL
USER_CHARGES


@<TRIPOS>ATOM
      1 CA        -81.1281   21.7996  -72.6688 C.3       0 UNK        -0.1998 
      2 C         -81.6790   23.1654  -73.0479 C.2       0 UNK         0.4909 
      3 O         -82.3313   23.2975  -74.0842 O.2       0 UNK        -0.5240 
      4 N         -81.4087   24.1855  -72.2237 N.am      1 UNK        -0.4739 
      5 CA        -81.7821   25.5893  -72.4326 C.3       1 UNK         0.0864 
      6 C6        -81.4340   26.4819  -71.2086 C.3       11 UNK        -0.0881 
      7 S7        -79.8081   26.1412  -70.4359 S.3       11 UNK        -0.2682 
      8 C8        -79.2811   27.7956  -69.8938 C.3       11 UNK         0.0289 
      9 C9        -78.2888   28.4249  -70.8609 C.ar      11 UNK        -0.0687 
     10 C10       -78.7336   29.2299  -71.9148 C.ar      11 UNK        -0.0823 
     11 C11       -77.8165   29.8571  -72.7660 C.ar      11 UNK        -0.0830 
     12 C12       -76.4473   29.6670  -72.5573 C.ar      11 UNK        -0.1021 
     13 C13       -75.9916   28.8533  -71.5176 C.ar      11 UNK        -0.0753 
     14 C14       -76.9159   28.2331  -70.6728 C.ar      11 UNK        -0.0933 
     15 C15       -74.4986   28.6669  -71.3074 C.3       11 UNK         0.0166 
     16 S16       -73.8029   30.0811  -70.3980 S.3       11 UNK        -0.2615 
     17 C17       -72.0124   29.9158  -70.7191 C.3       11 UNK        -0.0865 
     18 CA        -71.4646   31.0440  -71.6451 C.3       10 UNK         0.0862 
     19 C         -71.1626   32.3837  -70.9050 C.2       10 UNK         0.5551 
     20 N         -70.1769   33.1630  -71.3368 N.am      10 UNK        -0.7319 
     21 O         -71.8244   32.7343  -69.9318 O.2       10 UNK        -0.5018 
     22 N         -70.3136   30.5823  -72.4399 N.am      10 UNK        -0.4509 
     23 C         -70.3107   29.9371  -73.6121 C.2       10 UNK         0.4899 
     24 O         -69.2571   29.6269  -74.1707 O.2       10 UNK        -0.4839 
     25 CA        -71.6378   29.5722  -74.2978 C.3       9 UNK         0.0222 
     26 CB        -72.1086   30.6861  -75.2494 C.3       9 UNK        -0.1966 
     27 N         -71.4223   28.3412  -75.0508 N.am      9 UNK        -0.4218 
     28 C         -72.3095   27.3550  -75.2083 C.2       9 UNK         0.5020 
     29 O         -73.4684   27.3980  -74.7955 O.2       9 UNK        -0.5274 
     30 CA        -71.7766   26.0887  -75.8880 C.3       8 UNK         0.0270 
     31 CB        -71.0287   25.2063  -74.8683 C.3       8 UNK        -0.1976 
     32 N         -72.8626   25.3250  -76.5029 N.am      8 UNK        -0.4313 
     33 C         -72.6902   24.4426  -77.4967 C.2       8 UNK         0.5041 
     34 O         -71.5974   24.2066  -78.0158 O.2       8 UNK        -0.5577 
     35 CA        -73.9259   23.6843  -78.0063 C.3       7 UNK         0.0284 
     36 CB        -74.2850   22.5203  -77.0678 C.3       7 UNK        -0.1958 
     37 N         -75.0850   24.5558  -78.1929 N.am      7 UNK        -0.4454 
     38 C         -75.2465   25.3847  -79.2335 C.2       7 UNK         0.5089 
     39 O         -74.4397   25.4881  -80.1583 O.2       7 UNK        -0.5125 
     40 CA        -76.5288   26.2362  -79.2639 C.3       6 UNK         0.0408 
     41 CB        -77.6422   25.4997  -80.0249 C.3       6 UNK        -0.1791 
     42 N         -77.0137   26.5992  -77.9321 N.am      6 UNK        -0.4762 
     43 C         -76.3852   27.4365  -77.0935 C.2       6 UNK         0.5007 
     44 O         -75.3601   28.0519  -77.3879 O.2       6 UNK        -0.5032 
     45 CA        -77.0028   27.5874  -75.6868 C.3       5 UNK         0.0783 
     46 C46       -78.1752   28.6040  -75.7046 C.3       11 UNK        -0.0857 
     47 S47       -77.6077   30.3245  -75.5192 S.3       11 UNK        -0.2512 
     48 C48       -78.3057   30.7631  -73.8911 C.3       11 UNK         0.0225 
     49 N         -77.4264   26.3031  -75.1165 N.am      5 UNK        -0.4615 
     50 C         -76.6556   25.2213  -74.9346 C.2       4 UNK         0.5053 
     51 O         -75.4577   25.1702  -75.2012 O.2       4 UNK        -0.5105 
     52 CA        -77.3626   23.9483  -74.4469 C.3       4 UNK         0.0263 
     53 CB        -77.5930   23.9818  -72.9278 C.3       4 UNK        -0.1981 
     54 N         -78.6306   23.7527  -75.1514 N.am      4 UNK        -0.4224 
     55 C         -78.7215   23.3715  -76.4348 C.2       3 UNK         0.4895 
     56 O         -77.7531   23.0506  -77.1228 O.2       3 UNK        -0.5091 
     57 CA        -80.1200   23.3879  -77.0739 C.3       3 UNK         0.0250 
     58 CB        -80.8184   22.0308  -76.8967 C.3       3 UNK        -0.1996 
     59 N         -80.9653   24.4621  -76.5442 N.am      3 UNK        -0.4254 
     60 C         -80.7711   25.7613  -76.8207 C.2       2 UNK         0.5004 
     61 O         -79.8938   26.1695  -77.5808 O.2       2 UNK        -0.5226 
     62 CA        -81.6674   26.7848  -76.0990 C.3       2 UNK         0.0269 
     63 CB        -82.9288   27.0725  -76.9277 C.3       2 UNK        -0.1926 
     64 N         -82.0543   26.3799  -74.7436 N.am      2 UNK        -0.4687 
     65 C         -81.1908   26.1314  -73.7489 C.2       1 UNK         0.5165 
     66 O         -79.9723   26.2537  -73.8678 O.2       1 UNK        -0.5079 
     67 H67       -80.3734   21.4854  -73.3892 H         1 UNK         0.0900 
     68 H68       -80.6710   21.8061  -71.6794 H         1 UNK         0.0900 
     69 H69       -81.9281   21.0599  -72.6671 H         1 UNK         0.0900 
     70 H70       -80.8390   24.0267  -71.4040 H         1 UNK         0.2959 
     71 H71       -82.8692   25.6070  -72.5362 H         1 UNK         0.1079 
     72 H72       -81.5086   27.5387  -71.4715 H         1 UNK         0.0837 
     73 H73       -82.1865   26.3262  -70.4341 H         1 UNK         0.0837 
     74 H74       -80.1459   28.4459  -69.7544 H         1 UNK         0.0685 
     75 H75       -78.8208   27.7026  -68.9089 H         1 UNK         0.0685 
     76 H76       -79.7945   29.3784  -72.0607 H         1 UNK         0.1434 
     77 H77       -75.7319   30.1558  -73.2049 H         1 UNK         0.1329 
     78 H78       -76.5669   27.6130  -69.8584 H         1 UNK         0.1335 
     79 H79       -74.0146   28.5599  -72.2770 H         1 UNK         0.0680 
     80 H80       -74.2960   27.7462  -70.7580 H         1 UNK         0.0680 
     81 H81       -71.8325   28.9337  -71.1587 H         1 UNK         0.1032 
     82 H82       -71.4799   29.9027  -69.7663 H         1 UNK         0.1032 
     83 H83       -72.2532   31.3212  -72.3447 H         1 UNK         0.0461 
     84 H84       -69.9894   34.0271  -70.8525 H         1 UNK         0.3453 
     85 H85       -69.6515   32.9286  -72.1641 H         1 UNK         0.3453 
     86 H86       -69.4191   30.7989  -72.0231 H         1 UNK         0.2984 
     87 H87       -72.3995   29.3954  -73.5419 H         1 UNK         0.0554 
     88 H88       -72.2670   31.6238  -74.7162 H         1 UNK         0.0847 
     89 H89       -73.0528   30.4219  -75.7268 H         1 UNK         0.0847 
     90 H90       -71.3784   30.8781  -76.0364 H         1 UNK         0.0847 
     91 H91       -70.4648   28.2079  -75.3534 H         1 UNK         0.3141 
     92 H92       -71.0822   26.4012  -76.6712 H         1 UNK         0.0743 
     93 H93       -71.6982   24.8489  -74.0848 H         1 UNK         0.0784 
     94 H94       -70.5788   24.3359  -75.3460 H         1 UNK         0.0784 
     95 H95       -70.2222   25.7577  -74.3832 H         1 UNK         0.0784 
     96 H96       -73.7892   25.4785  -76.1023 H         1 UNK         0.3213 
     97 H97       -73.6691   23.2527  -78.9765 H         1 UNK         0.0855 
     98 H98       -74.5361   22.8647  -76.0650 H         1 UNK         0.0814 
     99 H99       -73.4475   21.8281  -76.9715 H         1 UNK         0.0814 
    100 H100      -75.1338   21.9516  -77.4482 H         1 UNK         0.0814 
    101 H101      -75.7927   24.5386  -77.4698 H         1 UNK         0.3105 
    102 H102      -76.3023   27.1589  -79.8020 H         1 UNK         0.0547 
    103 H103      -78.5355   26.1176  -80.1177 H         1 UNK         0.0837 
    104 H104      -77.9271   24.5733  -79.5250 H         1 UNK         0.0837 
    105 H105      -77.3205   25.2407  -81.0345 H         1 UNK         0.0837 
    106 H106      -77.9063   26.2059  -77.6468 H         1 UNK         0.3020 
    107 H107      -76.2139   27.9577  -75.0274 H         1 UNK         0.1245 
    108 H108      -78.8724   28.3922  -74.8940 H         1 UNK         0.0781 
    109 H109      -78.7691   28.5249  -76.6172 H         1 UNK         0.0781 
    110 H110      -79.3944   30.7433  -73.9611 H         1 UNK         0.0836 
    111 H111      -78.0320   31.7927  -73.6571 H         1 UNK         0.0836 
    112 H112      -78.3908   26.2564  -74.7947 H         1 UNK         0.3022 
    113 H113      -76.7144   23.0973  -74.6677 H         1 UNK         0.0747 
    114 H114      -78.0847   23.0740  -72.5787 H         1 UNK         0.0793 
    115 H115      -76.6443   24.0627  -72.3958 H         1 UNK         0.0793 
    116 H116      -78.2025   24.8323  -72.6247 H         1 UNK         0.0793 
    117 H117      -79.4652   24.0728  -74.6814 H         1 UNK         0.3047 
    118 H118      -79.9886   23.5588  -78.1448 H         1 UNK         0.0822 
    119 H119      -81.7954   22.0211  -77.3799 H         1 UNK         0.0807 
    120 H120      -80.9618   21.7793  -75.8462 H         1 UNK         0.0807 
    121 H121      -80.2280   21.2298  -77.3438 H         1 UNK         0.0807 
    122 H122      -81.6796   24.1992  -75.8724 H         1 UNK         0.2946 
    123 H123      -81.0963   27.7116  -76.0154 H         1 UNK         0.1144 
    124 H124      -83.5601   26.1882  -77.0238 H         1 UNK         0.0793 
    125 H125      -82.6669   27.3972  -77.9359 H         1 UNK         0.0793 
    126 H126      -83.5265   27.8664  -76.4794 H         1 UNK         0.0793 
    127 H127      -83.0389   26.2166  -74.5868 H         1 UNK         0.2896 
@<TRIPOS>BOND
     1    1    2 1    
     2    1   67 1    
     3    1   68 1    
     4    1   69 1    
     5    2    3 2    
     6    2    4 am   BACKBONE|DICT|INTERRES
     7    4    5 1    
     8    4   70 1    
     9    5    6 1    
    10    5   65 1    
    11    5   71 1    
    12    6    7 1    
    13    6   72 1    
    14    6   73 1    
    15    7    8 1    
    16    8    9 1    
    17    8   74 1    
    18    8   75 1    
    19    9   10 ar   
    20    9   14 ar   
    21   10   11 ar   
    22   10   76 1    
    23   11   12 ar   
    24   11   48 1    
    25   12   13 ar   
    26   12   77 1    
    27   13   14 ar   
    28   13   15 1    
    29   14   78 1    
    30   15   16 1    
    31   15   79 1    
    32   15   80 1    
    33   16   17 1    
    34   17   18 1    
    35   17   81 1    
    36   17   82 1    
    37   18   19 1    
    38   18   22 1    
    39   18   83 1    
    40   19   20 am   BACKBONE|DICT|INTERRES
    41   19   21 2    
    42   20   84 1    
    43   20   85 1    
    44   22   23 am   BACKBONE|DICT|INTERRES
    45   22   86 1    
    46   23   24 2    
    47   23   25 1    
    48   25   26 1    
    49   25   27 1    
    50   25   87 1    
    51   26   88 1    
    52   26   89 1    
    53   26   90 1    
    54   27   28 am   BACKBONE|DICT|INTERRES
    55   27   91 1    
    56   28   29 2    
    57   28   30 1    
    58   30   31 1    
    59   30   32 1    
    60   30   92 1    
    61   31   93 1    
    62   31   94 1    
    63   31   95 1    
    64   32   33 am   BACKBONE|DICT|INTERRES
    65   32   96 1    
    66   33   34 2    
    67   33   35 1    
    68   35   36 1    
    69   35   37 1    
    70   35   97 1    
    71   36   98 1    
    72   36   99 1    
    73   36  100 1    
    74   37   38 am   BACKBONE|DICT|INTERRES
    75   37  101 1    
    76   38   39 2    
    77   38   40 1    
    78   40   41 1    
    79   40   42 1    
    80   40  102 1    
    81   41  103 1    
    82   41  104 1    
    83   41  105 1    
    84   42   43 am   BACKBONE|DICT|INTERRES
    85   42  106 1    
    86   43   44 2    
    87   43   45 1    
    88   45   46 1    
    89   45   49 1    
    90   45  107 1    
    91   46   47 1    
    92   46  108 1    
    93   46  109 1    
    94   47   48 1    
    95   48  110 1    
    96   48  111 1    
    97   49   50 am   BACKBONE|DICT|INTERRES
    98   49  112 1    
    99   50   51 2    
   100   50   52 1    
   101   52   53 1    
   102   52   54 1    
   103   52  113 1    
   104   53  114 1    
   105   53  115 1    
   106   53  116 1    
   107   54   55 am   BACKBONE|DICT|INTERRES
   108   54  117 1    
   109   55   56 2    
   110   55   57 1    
   111   57   58 1    
   112   57   59 1    
   113   57  118 1    
   114   58  119 1    
   115   58  120 1    
   116   58  121 1    
   117   59   60 am   BACKBONE|DICT|INTERRES
   118   59  122 1    
   119   60   61 2    
   120   60   62 1    
   121   62   63 1    
   122   62   64 1    
   123   62  123 1    
   124   63  124 1    
   125   63  125 1    
   126   63  126 1    
   127   64   65 am   BACKBONE|DICT|INTERRES
   128   64  127 1    
   129   65   66 2    
@<TRIPOS>SUBSTRUCTURE
     1 UNK         1 GROUP             0       ****    0 ROOT    
