@<TRIPOS>MOLECULE
3R135
127   129    1
SMALL
USER_CHARGES


@<TRIPOS>ATOM
      1 CA        -77.3724   25.4919  -71.4575 C.3       0 UNK        -0.1998 
      2 C         -78.8482   25.4489  -71.0978 C.2       0 UNK         0.4909 
      3 O         -79.1941   25.2738  -69.9298 O.2       0 UNK        -0.5240 
      4 N         -79.7209   25.5891  -72.1003 N.am      1 UNK        -0.4739 
      5 CA        -81.1846   25.6116  -71.9686 C.3       1 UNK         0.0864 
      6 C6        -81.8169   26.7618  -72.8012 C.3       11 UNK        -0.0881 
      7 S7        -81.1333   28.4018  -72.3820 S.3       11 UNK        -0.2682 
      8 C8        -79.8712   28.5635  -73.6896 C.3       11 UNK         0.0289 
      9 C9        -78.6907   29.4351  -73.2827 C.ar      11 UNK        -0.0687 
     10 C10       -78.2089   30.4052  -74.1647 C.ar      11 UNK        -0.0823 
     11 C11       -77.0717   31.1539  -73.8479 C.ar      11 UNK        -0.0830 
     12 C12       -76.4400   30.9578  -72.6166 C.ar      11 UNK        -0.1021 
     13 C13       -76.9159   29.9973  -71.7197 C.ar      11 UNK        -0.0753 
     14 C14       -78.0343   29.2327  -72.0634 C.ar      11 UNK        -0.0933 
     15 C15       -76.2197   29.7709  -70.3863 C.3       11 UNK         0.0166 
     16 S16       -74.9648   28.4622  -70.5289 S.3       11 UNK        -0.2615 
     17 C17       -73.4219   29.3447  -70.1065 C.3       11 UNK        -0.0865 
     18 CA        -72.9297   30.3704  -71.1733 C.3       10 UNK         0.0862 
     19 C         -71.5955   31.0593  -70.7532 C.2       10 UNK         0.5551 
     20 N         -70.7004   31.3880  -71.6770 N.am      10 UNK        -0.7319 
     21 O         -71.3791   31.3310  -69.5745 O.2       10 UNK        -0.5018 
     22 N         -72.9504   29.8605  -72.5577 N.am      10 UNK        -0.4509 
     23 C         -72.2854   28.7960  -73.0197 C.2       10 UNK         0.4899 
     24 O         -71.5431   28.0835  -72.3401 O.2       10 UNK        -0.4839 
     25 CA        -72.4443   28.5060  -74.5190 C.3       9 UNK         0.0222 
     26 CB        -71.1803   28.9290  -75.2859 C.3       9 UNK        -0.1966 
     27 N         -72.7059   27.0870  -74.7567 N.am      9 UNK        -0.4218 
     28 C         -73.8664   26.4783  -74.4850 C.2       9 UNK         0.5020 
     29 O         -74.8714   27.0594  -74.0748 O.2       9 UNK        -0.5274 
     30 CA        -73.9163   24.9752  -74.7759 C.3       8 UNK         0.0270 
     31 CB        -75.0087   24.2554  -73.9642 C.3       8 UNK        -0.1976 
     32 N         -74.1955   24.8057  -76.1968 N.am      8 UNK        -0.4313 
     33 C         -73.4135   24.1702  -77.0760 C.2       8 UNK         0.5041 
     34 O         -72.3391   23.6425  -76.7854 O.2       8 UNK        -0.5577 
     35 CA        -73.9077   24.1175  -78.5281 C.3       7 UNK         0.0284 
     36 CB        -75.0660   23.1168  -78.6720 C.3       7 UNK        -0.1958 
     37 N         -74.3541   25.4347  -78.9811 N.am      7 UNK        -0.4454 
     38 C         -73.6848   26.2213  -79.8340 C.2       7 UNK         0.5089 
     39 O         -72.6092   25.9155  -80.3503 O.2       7 UNK        -0.5125 
     40 CA        -74.3241   27.5766  -80.1959 C.3       6 UNK         0.0408 
     41 CB        -75.0493   27.4789  -81.5477 C.3       6 UNK        -0.1791 
     42 N         -75.2617   28.0769  -79.1870 N.am      6 UNK        -0.4762 
     43 C         -74.9099   28.5155  -77.9691 C.2       6 UNK         0.5007 
     44 O         -73.7423   28.5901  -77.5919 O.2       6 UNK        -0.5032 
     45 CA        -76.0557   28.9273  -77.0154 C.3       5 UNK         0.0783 
     46 C46       -76.3023   30.4600  -77.1002 C.3       11 UNK        -0.0857 
     47 S47       -75.2675   31.4122  -75.9340 S.3       11 UNK        -0.2512 
     48 C48       -76.5146   32.1659  -74.8373 C.3       11 UNK         0.0225 
     49 N         -77.3051   28.1719  -77.2182 N.am      5 UNK        -0.4615 
     50 C         -77.4435   26.8377  -77.2083 C.2       4 UNK         0.5053 
     51 O         -76.5039   26.0465  -77.1035 O.2       4 UNK        -0.5105 
     52 CA        -78.8677   26.3088  -77.4479 C.3       4 UNK         0.0263 
     53 CB        -79.2536   26.4764  -78.9280 C.3       4 UNK        -0.1981 
     54 N         -79.0156   24.8959  -77.0880 N.am      4 UNK        -0.4224 
     55 C         -79.0516   24.4226  -75.8372 C.2       3 UNK         0.4895 
     56 O         -78.9653   25.1279  -74.8263 O.2       3 UNK        -0.5091 
     57 CA        -79.2320   22.9040  -75.6913 C.3       3 UNK         0.0250 
     58 CB        -77.9033   22.1547  -75.8834 C.3       3 UNK        -0.1996 
     59 N         -79.7487   22.6453  -74.3541 N.am      3 UNK        -0.4254 
     60 C         -80.6604   21.7298  -74.0057 C.2       2 UNK         0.5004 
     61 O         -81.0919   20.8626  -74.7660 O.2       2 UNK        -0.5226 
     62 CA        -81.1993   21.8147  -72.5622 C.3       2 UNK         0.0269 
     63 CB        -80.4873   20.7948  -71.6590 C.3       2 UNK        -0.1926 
     64 N         -81.0405   23.1579  -71.9916 N.am      2 UNK        -0.4687 
     65 C         -81.7481   24.2324  -72.3744 C.2       1 UNK         0.5165 
     66 O         -82.7563   24.1542  -73.0790 O.2       1 UNK        -0.5079 
     67 H67       -76.8242   26.0842  -70.7261 H         1 UNK         0.0900 
     68 H68       -77.2087   25.9401  -72.4385 H         1 UNK         0.0900 
     69 H69       -76.9567   24.4851  -71.4624 H         1 UNK         0.0900 
     70 H70       -79.3753   25.6574  -73.0554 H         1 UNK         0.2959 
     71 H71       -81.4631   25.7669  -70.9240 H         1 UNK         0.1079 
     72 H72       -81.6923   26.5822  -73.8713 H         1 UNK         0.0837 
     73 H73       -82.8939   26.8026  -72.6279 H         1 UNK         0.0837 
     74 H74       -80.3552   28.9526  -74.5866 H         1 UNK         0.0685 
     75 H75       -79.4762   27.5846  -73.9572 H         1 UNK         0.0685 
     76 H76       -78.7086   30.5601  -75.1099 H         1 UNK         0.1434 
     77 H77       -75.5704   31.5463  -72.3640 H         1 UNK         0.1329 
     78 H78       -78.3906   28.4728  -71.3821 H         1 UNK         0.1335 
     79 H79       -76.9497   29.4773  -69.6305 H         1 UNK         0.0680 
     80 H80       -75.7724   30.6996  -70.0298 H         1 UNK         0.0680 
     81 H81       -73.5674   29.8385  -69.1440 H         1 UNK         0.1032 
     82 H82       -72.6521   28.5907  -69.9341 H         1 UNK         0.1032 
     83 H83       -73.6487   31.1883  -71.1723 H         1 UNK         0.0461 
     84 H84       -70.8699   31.1805  -72.6475 H         1 UNK         0.3453 
     85 H85       -69.8456   31.8431  -71.3977 H         1 UNK         0.3453 
     86 H86       -73.5302   30.3780  -73.2022 H         1 UNK         0.2984 
     87 H87       -73.2888   29.0791  -74.9079 H         1 UNK         0.0554 
     88 H88       -71.2850   28.7450  -76.3554 H         1 UNK         0.0847 
     89 H89       -70.2957   28.3942  -74.9376 H         1 UNK         0.0847 
     90 H90       -70.9878   29.9953  -75.1614 H         1 UNK         0.0847 
     91 H91       -71.9326   26.5323  -75.0933 H         1 UNK         0.3141 
     92 H92       -72.9505   24.5431  -74.5053 H         1 UNK         0.0743 
     93 H93       -74.8648   24.4152  -72.8952 H         1 UNK         0.0784 
     94 H94       -76.0066   24.6145  -74.2215 H         1 UNK         0.0784 
     95 H95       -74.9837   23.1800  -74.1387 H         1 UNK         0.0784 
     96 H96       -75.0540   25.2508  -76.5248 H         1 UNK         0.3213 
     97 H97       -73.0800   23.7612  -79.1454 H         1 UNK         0.0855 
     98 H98       -75.9529   23.4499  -78.1334 H         1 UNK         0.0814 
     99 H99       -74.7906   22.1361  -78.2814 H         1 UNK         0.0814 
    100 H100      -75.3431   22.9839  -79.7178 H         1 UNK         0.0814 
    101 H101      -75.2039   25.7932  -78.5575 H         1 UNK         0.3105 
    102 H102      -73.5154   28.3037  -80.2957 H         1 UNK         0.0547 
    103 H103      -75.8817   26.7751  -81.5106 H         1 UNK         0.0837 
    104 H104      -75.4397   28.4473  -81.8611 H         1 UNK         0.0837 
    105 H105      -74.3703   27.1379  -82.3306 H         1 UNK         0.0837 
    106 H106      -76.2431   28.0556  -79.4230 H         1 UNK         0.3020 
    107 H107      -75.7264   28.6783  -76.0038 H         1 UNK         0.1245 
    108 H108      -77.3470   30.6939  -76.9014 H         1 UNK         0.0781 
    109 H109      -76.1288   30.8428  -78.1083 H         1 UNK         0.0781 
    110 H110      -76.0504   32.9920  -74.2964 H         1 UNK         0.0836 
    111 H111      -77.3159   32.6098  -75.4302 H         1 UNK         0.0836 
    112 H112      -78.1343   28.7312  -77.3525 H         1 UNK         0.3022 
    113 H113      -79.5568   26.8917  -76.8327 H         1 UNK         0.0747 
    114 H114      -79.2188   27.5228  -79.2338 H         1 UNK         0.0793 
    115 H115      -80.2689   26.1254  -79.1145 H         1 UNK         0.0793 
    116 H116      -78.5822   25.9222  -79.5856 H         1 UNK         0.0793 
    117 H117      -79.0575   24.2414  -77.8552 H         1 UNK         0.3047 
    118 H118      -79.9575   22.5667  -76.4351 H         1 UNK         0.0822 
    119 H119      -77.5333   22.2712  -76.9012 H         1 UNK         0.0807 
    120 H120      -78.0226   21.0857  -75.7065 H         1 UNK         0.0807 
    121 H121      -77.1316   22.5210  -75.2064 H         1 UNK         0.0807 
    122 H122      -79.4959   23.3529  -73.6779 H         1 UNK         0.2946 
    123 H123      -82.2637   21.5701  -72.5929 H         1 UNK         0.1144 
    124 H124      -80.6085   19.7816  -72.0450 H         1 UNK         0.0793 
    125 H125      -80.8965   20.8059  -70.6485 H         1 UNK         0.0793 
    126 H126      -79.4166   20.9917  -71.5911 H         1 UNK         0.0793 
    127 H127      -80.2457   23.3077  -71.3853 H         1 UNK         0.2896 
@<TRIPOS>BOND
     1    1    2 1    
     2    1   67 1    
     3    1   68 1    
     4    1   69 1    
     5    2    3 2    
     6    2    4 am   BACKBONE|DICT|INTERRES
     7    4    5 1    
     8    4   70 1    
     9    5    6 1    
    10    5   65 1    
    11    5   71 1    
    12    6    7 1    
    13    6   72 1    
    14    6   73 1    
    15    7    8 1    
    16    8    9 1    
    17    8   74 1    
    18    8   75 1    
    19    9   10 ar   
    20    9   14 ar   
    21   10   11 ar   
    22   10   76 1    
    23   11   12 ar   
    24   11   48 1    
    25   12   13 ar   
    26   12   77 1    
    27   13   14 ar   
    28   13   15 1    
    29   14   78 1    
    30   15   16 1    
    31   15   79 1    
    32   15   80 1    
    33   16   17 1    
    34   17   18 1    
    35   17   81 1    
    36   17   82 1    
    37   18   19 1    
    38   18   22 1    
    39   18   83 1    
    40   19   20 am   BACKBONE|DICT|INTERRES
    41   19   21 2    
    42   20   84 1    
    43   20   85 1    
    44   22   23 am   BACKBONE|DICT|INTERRES
    45   22   86 1    
    46   23   24 2    
    47   23   25 1    
    48   25   26 1    
    49   25   27 1    
    50   25   87 1    
    51   26   88 1    
    52   26   89 1    
    53   26   90 1    
    54   27   28 am   BACKBONE|DICT|INTERRES
    55   27   91 1    
    56   28   29 2    
    57   28   30 1    
    58   30   31 1    
    59   30   32 1    
    60   30   92 1    
    61   31   93 1    
    62   31   94 1    
    63   31   95 1    
    64   32   33 am   BACKBONE|DICT|INTERRES
    65   32   96 1    
    66   33   34 2    
    67   33   35 1    
    68   35   36 1    
    69   35   37 1    
    70   35   97 1    
    71   36   98 1    
    72   36   99 1    
    73   36  100 1    
    74   37   38 am   BACKBONE|DICT|INTERRES
    75   37  101 1    
    76   38   39 2    
    77   38   40 1    
    78   40   41 1    
    79   40   42 1    
    80   40  102 1    
    81   41  103 1    
    82   41  104 1    
    83   41  105 1    
    84   42   43 am   BACKBONE|DICT|INTERRES
    85   42  106 1    
    86   43   44 2    
    87   43   45 1    
    88   45   46 1    
    89   45   49 1    
    90   45  107 1    
    91   46   47 1    
    92   46  108 1    
    93   46  109 1    
    94   47   48 1    
    95   48  110 1    
    96   48  111 1    
    97   49   50 am   BACKBONE|DICT|INTERRES
    98   49  112 1    
    99   50   51 2    
   100   50   52 1    
   101   52   53 1    
   102   52   54 1    
   103   52  113 1    
   104   53  114 1    
   105   53  115 1    
   106   53  116 1    
   107   54   55 am   BACKBONE|DICT|INTERRES
   108   54  117 1    
   109   55   56 2    
   110   55   57 1    
   111   57   58 1    
   112   57   59 1    
   113   57  118 1    
   114   58  119 1    
   115   58  120 1    
   116   58  121 1    
   117   59   60 am   BACKBONE|DICT|INTERRES
   118   59  122 1    
   119   60   61 2    
   120   60   62 1    
   121   62   63 1    
   122   62   64 1    
   123   62  123 1    
   124   63  124 1    
   125   63  125 1    
   126   63  126 1    
   127   64   65 am   BACKBONE|DICT|INTERRES
   128   64  127 1    
   129   65   66 2    
@<TRIPOS>SUBSTRUCTURE
     1 UNK         1 GROUP             0       ****    0 ROOT    
