@<TRIPOS>MOLECULE
3R135
127   129    1
SMALL
USER_CHARGES


@<TRIPOS>ATOM
      1 CA        -79.0567   25.5918  -69.8956 C.3       0 UNK        -0.1998 
      2 C         -80.5609   25.6726  -70.0897 C.2       0 UNK         0.4909 
      3 O         -81.2919   24.8117  -69.5992 O.2       0 UNK        -0.5240 
      4 N         -81.0274   26.6978  -70.8152 N.am      1 UNK        -0.4739 
      5 CA        -82.4345   26.8623  -71.2007 C.3       1 UNK         0.0864 
      6 C6        -82.7899   28.3457  -71.4824 C.3       11 UNK        -0.0881 
      7 S7        -81.8411   29.1122  -72.8466 S.3       11 UNK        -0.2682 
      8 C8        -80.6618   30.1969  -71.9769 C.3       11 UNK         0.0289 
      9 C9        -79.2359   29.8788  -72.3978 C.ar      11 UNK        -0.0687 
     10 C10       -78.4157   29.0921  -71.5835 C.ar      11 UNK        -0.0823 
     11 C11       -77.1225   28.7539  -71.9935 C.ar      11 UNK        -0.0830 
     12 C12       -76.6478   29.2295  -73.2192 C.ar      11 UNK        -0.1021 
     13 C13       -77.4520   30.0260  -74.0375 C.ar      11 UNK        -0.0753 
     14 C14       -78.7444   30.3531  -73.6181 C.ar      11 UNK        -0.0933 
     15 C15       -76.9509   30.4693  -75.4039 C.3       11 UNK         0.0166 
     16 S16       -75.9225   31.9770  -75.3501 S.3       11 UNK        -0.2615 
     17 C17       -74.4359   31.4821  -74.4045 C.3       11 UNK        -0.0865 
     18 CA        -73.5732   30.3719  -75.0804 C.3       10 UNK         0.0862 
     19 C         -72.5561   30.9025  -76.1391 C.2       10 UNK         0.5551 
     20 N         -71.4098   30.2588  -76.3324 N.am      10 UNK        -0.7319 
     21 O         -72.8116   31.8968  -76.8134 O.2       10 UNK        -0.5018 
     22 N         -72.9995   29.4339  -74.1042 N.am      10 UNK        -0.4509 
     23 C         -72.0931   29.7464  -73.1684 C.2       10 UNK         0.4899 
     24 O         -71.7293   30.8973  -72.9247 O.2       10 UNK        -0.4839 
     25 CA        -71.4564   28.5888  -72.3768 C.3       9 UNK         0.0222 
     26 CB        -72.0659   28.5005  -70.9688 C.3       9 UNK        -0.1966 
     27 N         -71.5332   27.2720  -73.0212 N.am      9 UNK        -0.4218 
     28 C         -70.9998   26.9426  -74.2072 C.2       9 UNK         0.5020 
     29 O         -70.4339   27.7493  -74.9483 O.2       9 UNK        -0.5274 
     30 CA        -71.1090   25.4747  -74.6495 C.3       8 UNK         0.0270 
     31 CB        -71.7992   24.5481  -73.6255 C.3       8 UNK        -0.1976 
     32 N         -71.8435   25.4221  -75.9100 N.am      8 UNK        -0.4313 
     33 C         -71.4027   24.8773  -77.0520 C.2       8 UNK         0.5041 
     34 O         -70.2939   24.3527  -77.1710 O.2       8 UNK        -0.5577 
     35 CA        -72.3504   24.8858  -78.2697 C.3       7 UNK         0.0284 
     36 CB        -72.6330   23.4519  -78.7516 C.3       7 UNK        -0.1958 
     37 N         -73.6280   25.5439  -77.9899 N.am      7 UNK        -0.4454 
     38 C         -73.8632   26.8553  -78.1365 C.2       7 UNK         0.5089 
     39 O         -73.0530   27.6462  -78.6179 O.2       7 UNK        -0.5125 
     40 CA        -75.2173   27.3845  -77.6263 C.3       6 UNK         0.0408 
     41 CB        -76.1969   27.5778  -78.7929 C.3       6 UNK        -0.1791 
     42 N         -75.8236   26.5370  -76.5888 N.am      6 UNK        -0.4762 
     43 C         -75.2887   26.3413  -75.3703 C.2       6 UNK         0.5007 
     44 O         -74.2638   26.9193  -75.0028 O.2       6 UNK        -0.5032 
     45 CA        -75.9229   25.2717  -74.4451 C.3       5 UNK         0.0783 
     46 C46       -76.6061   25.8610  -73.1862 C.3       11 UNK        -0.0857 
     47 S47       -75.3837   26.5181  -71.9892 S.3       11 UNK        -0.2512 
     48 C48       -76.2542   27.8656  -71.1088 C.3       11 UNK         0.0225 
     49 N         -76.8158   24.3564  -75.1622 N.am      5 UNK        -0.4615 
     50 C         -76.3887   23.4029  -76.0041 C.2       4 UNK         0.5053 
     51 O         -75.1997   23.2068  -76.2552 O.2       4 UNK        -0.5105 
     52 CA        -77.4563   22.5530  -76.7186 C.3       4 UNK         0.0263 
     53 CB        -77.7344   21.2669  -75.9248 C.3       4 UNK        -0.1981 
     54 N         -78.7190   23.2607  -76.9507 N.am      4 UNK        -0.4224 
     55 C         -78.8470   24.3878  -77.6655 C.2       3 UNK         0.4895 
     56 O         -77.9112   24.9259  -78.2542 O.2       3 UNK        -0.5091 
     57 CA        -80.2321   25.0566  -77.7049 C.3       3 UNK         0.0250 
     58 CB        -80.9450   24.7282  -79.0266 C.3       3 UNK        -0.1996 
     59 N         -81.1179   24.7237  -76.5821 N.am      3 UNK        -0.4254 
     60 C         -80.8597   24.9586  -75.2881 C.2       2 UNK         0.5004 
     61 O         -79.7851   25.3944  -74.8613 O.2       2 UNK        -0.5226 
     62 CA        -81.9790   24.6050  -74.3044 C.3       2 UNK         0.0269 
     63 CB        -81.8970   23.1267  -73.8856 C.3       2 UNK        -0.1926 
     64 N         -81.8357   25.4546  -73.1299 N.am      2 UNK        -0.4687 
     65 C         -82.8299   25.9309  -72.3702 C.2       1 UNK         0.5165 
     66 O         -84.0176   25.6597  -72.5547 O.2       1 UNK        -0.5079 
     67 H67       -78.5356   25.9010  -70.7999 H         1 UNK         0.0900 
     68 H68       -78.7531   24.5695  -69.6709 H         1 UNK         0.0900 
     69 H69       -78.7448   26.2304  -69.0697 H         1 UNK         0.0900 
     70 H70       -80.3906   27.3734  -71.2121 H         1 UNK         0.2959 
     71 H71       -83.0498   26.5484  -70.3540 H         1 UNK         0.1079 
     72 H72       -83.8506   28.4322  -71.7263 H         1 UNK         0.0837 
     73 H73       -82.6650   28.9303  -70.5703 H         1 UNK         0.0837 
     74 H74       -80.8938   31.2361  -72.2145 H         1 UNK         0.0685 
     75 H75       -80.7650   30.1030  -70.8953 H         1 UNK         0.0685 
     76 H76       -78.7876   28.7363  -70.6328 H         1 UNK         0.1434 
     77 H77       -75.6572   28.9526  -73.5491 H         1 UNK         0.1329 
     78 H78       -79.3813   30.9529  -74.2540 H         1 UNK         0.1335 
     79 H79       -76.4134   29.6517  -75.8794 H         1 UNK         0.0680 
     80 H80       -77.8018   30.6681  -76.0572 H         1 UNK         0.0680 
     81 H81       -73.8308   32.3717  -74.2206 H         1 UNK         0.1032 
     82 H82       -74.7667   31.1699  -73.4142 H         1 UNK         0.1032 
     83 H83       -74.2365   29.7391  -75.6595 H         1 UNK         0.0461 
     84 H84       -70.7652   30.6013  -77.0263 H         1 UNK         0.3453 
     85 H85       -71.1795   29.4275  -75.7983 H         1 UNK         0.3453 
     86 H86       -73.2435   28.4584  -74.2470 H         1 UNK         0.2984 
     87 H87       -70.3965   28.8278  -72.2691 H         1 UNK         0.0554 
     88 H88       -71.5516   27.7599  -70.3562 H         1 UNK         0.0847 
     89 H89       -73.1214   28.2344  -71.0041 H         1 UNK         0.0847 
     90 H90       -71.9896   29.4564  -70.4484 H         1 UNK         0.0847 
     91 H91       -72.0119   26.5489  -72.5040 H         1 UNK         0.3141 
     92 H92       -70.0855   25.1209  -74.7882 H         1 UNK         0.0743 
     93 H93       -72.8198   24.8625  -73.4067 H         1 UNK         0.0784 
     94 H94       -71.8468   23.5248  -73.9990 H         1 UNK         0.0784 
     95 H95       -71.2471   24.5149  -72.6852 H         1 UNK         0.0784 
     96 H96       -72.7359   25.9035  -75.9089 H         1 UNK         0.3213 
     97 H97       -71.8371   25.4174  -79.0739 H         1 UNK         0.0855 
     98 H98       -71.7101   22.9458  -79.0379 H         1 UNK         0.0814 
     99 H99       -73.2865   23.4470  -79.6241 H         1 UNK         0.0814 
    100 H100      -73.1053   22.8504  -77.9741 H         1 UNK         0.0814 
    101 H101      -74.3485   24.9658  -77.5750 H         1 UNK         0.3105 
    102 H102      -75.0324   28.3645  -77.1912 H         1 UNK         0.0547 
    103 H103      -77.1723   27.9193  -78.4462 H         1 UNK         0.0837 
    104 H104      -76.3410   26.6564  -79.3574 H         1 UNK         0.0837 
    105 H105      -75.8209   28.3256  -79.4923 H         1 UNK         0.0837 
    106 H106      -76.6381   25.9994  -76.8643 H         1 UNK         0.3020 
    107 H107      -75.0881   24.6622  -74.0924 H         1 UNK         0.1245 
    108 H108      -77.1617   25.0775  -72.6691 H         1 UNK         0.0781 
    109 H109      -77.3479   26.6062  -73.4725 H         1 UNK         0.0781 
    110 H110      -75.5113   28.4945  -70.6178 H         1 UNK         0.0836 
    111 H111      -76.8433   27.4256  -70.3051 H         1 UNK         0.0836 
    112 H112      -77.8119   24.5026  -75.0373 H         1 UNK         0.3022 
    113 H113      -77.0508   22.2750  -77.6937 H         1 UNK         0.0747 
    114 H114      -78.4172   20.6079  -76.4617 H         1 UNK         0.0793 
    115 H115      -76.8137   20.7066  -75.7551 H         1 UNK         0.0793 
    116 H116      -78.1705   21.4809  -74.9481 H         1 UNK         0.0793 
    117 H117      -79.5415   22.8880  -76.5003 H         1 UNK         0.3047 
    118 H118      -80.0603   26.1346  -77.6697 H         1 UNK         0.0822 
    119 H119      -81.8768   25.2854  -79.1258 H         1 UNK         0.0807 
    120 H120      -81.1770   23.6655  -79.1074 H         1 UNK         0.0807 
    121 H121      -80.3218   24.9914  -79.8829 H         1 UNK         0.0807 
    122 H122      -82.0179   24.3373  -76.8299 H         1 UNK         0.2946 
    123 H123      -82.9414   24.8020  -74.7830 H         1 UNK         0.1144 
    124 H124      -82.0057   22.4661  -74.7467 H         1 UNK         0.0793 
    125 H125      -82.6887   22.8711  -73.1811 H         1 UNK         0.0793 
    126 H126      -80.9419   22.8950  -73.4119 H         1 UNK         0.0793 
    127 H127      -80.8905   25.7725  -72.9583 H         1 UNK         0.2896 
@<TRIPOS>BOND
     1    1    2 1    
     2    1   67 1    
     3    1   68 1    
     4    1   69 1    
     5    2    3 2    
     6    2    4 am   BACKBONE|DICT|INTERRES
     7    4    5 1    
     8    4   70 1    
     9    5    6 1    
    10    5   65 1    
    11    5   71 1    
    12    6    7 1    
    13    6   72 1    
    14    6   73 1    
    15    7    8 1    
    16    8    9 1    
    17    8   74 1    
    18    8   75 1    
    19    9   10 ar   
    20    9   14 ar   
    21   10   11 ar   
    22   10   76 1    
    23   11   12 ar   
    24   11   48 1    
    25   12   13 ar   
    26   12   77 1    
    27   13   14 ar   
    28   13   15 1    
    29   14   78 1    
    30   15   16 1    
    31   15   79 1    
    32   15   80 1    
    33   16   17 1    
    34   17   18 1    
    35   17   81 1    
    36   17   82 1    
    37   18   19 1    
    38   18   22 1    
    39   18   83 1    
    40   19   20 am   BACKBONE|DICT|INTERRES
    41   19   21 2    
    42   20   84 1    
    43   20   85 1    
    44   22   23 am   BACKBONE|DICT|INTERRES
    45   22   86 1    
    46   23   24 2    
    47   23   25 1    
    48   25   26 1    
    49   25   27 1    
    50   25   87 1    
    51   26   88 1    
    52   26   89 1    
    53   26   90 1    
    54   27   28 am   BACKBONE|DICT|INTERRES
    55   27   91 1    
    56   28   29 2    
    57   28   30 1    
    58   30   31 1    
    59   30   32 1    
    60   30   92 1    
    61   31   93 1    
    62   31   94 1    
    63   31   95 1    
    64   32   33 am   BACKBONE|DICT|INTERRES
    65   32   96 1    
    66   33   34 2    
    67   33   35 1    
    68   35   36 1    
    69   35   37 1    
    70   35   97 1    
    71   36   98 1    
    72   36   99 1    
    73   36  100 1    
    74   37   38 am   BACKBONE|DICT|INTERRES
    75   37  101 1    
    76   38   39 2    
    77   38   40 1    
    78   40   41 1    
    79   40   42 1    
    80   40  102 1    
    81   41  103 1    
    82   41  104 1    
    83   41  105 1    
    84   42   43 am   BACKBONE|DICT|INTERRES
    85   42  106 1    
    86   43   44 2    
    87   43   45 1    
    88   45   46 1    
    89   45   49 1    
    90   45  107 1    
    91   46   47 1    
    92   46  108 1    
    93   46  109 1    
    94   47   48 1    
    95   48  110 1    
    96   48  111 1    
    97   49   50 am   BACKBONE|DICT|INTERRES
    98   49  112 1    
    99   50   51 2    
   100   50   52 1    
   101   52   53 1    
   102   52   54 1    
   103   52  113 1    
   104   53  114 1    
   105   53  115 1    
   106   53  116 1    
   107   54   55 am   BACKBONE|DICT|INTERRES
   108   54  117 1    
   109   55   56 2    
   110   55   57 1    
   111   57   58 1    
   112   57   59 1    
   113   57  118 1    
   114   58  119 1    
   115   58  120 1    
   116   58  121 1    
   117   59   60 am   BACKBONE|DICT|INTERRES
   118   59  122 1    
   119   60   61 2    
   120   60   62 1    
   121   62   63 1    
   122   62   64 1    
   123   62  123 1    
   124   63  124 1    
   125   63  125 1    
   126   63  126 1    
   127   64   65 am   BACKBONE|DICT|INTERRES
   128   64  127 1    
   129   65   66 2    
@<TRIPOS>SUBSTRUCTURE
     1 UNK         1 GROUP             0       ****    0 ROOT    
