@<TRIPOS>MOLECULE
3R135
127   129    1
SMALL
USER_CHARGES


@<TRIPOS>ATOM
      1 CA        -77.6208   30.8979  -75.5937 C.3       0 UNK        -0.1998 
      2 C         -77.8030   29.4829  -75.0667 C.2       0 UNK         0.4909 
      3 O         -76.8700   28.6823  -75.1419 O.2       0 UNK        -0.5240 
      4 N         -78.9907   29.1797  -74.5222 N.am      1 UNK        -0.4739 
      5 CA        -79.3282   27.8748  -73.9412 C.3       1 UNK         0.0864 
      6 C6        -80.6141   27.8979  -73.0672 C.3       11 UNK        -0.0881 
      7 S7        -80.6515   29.2337  -71.8200 S.3       11 UNK        -0.2682 
      8 C8        -79.9216   28.4217  -70.3571 C.3       11 UNK         0.0289 
      9 C9        -78.5060   27.9391  -70.6352 C.ar      11 UNK        -0.0687 
     10 C10       -78.1924   26.5789  -70.5627 C.ar      11 UNK        -0.0823 
     11 C11       -76.9199   26.1160  -70.9154 C.ar      11 UNK        -0.0830 
     12 C12       -75.9521   27.0426  -71.3306 C.ar      11 UNK        -0.1021 
     13 C13       -76.2665   28.4005  -71.4347 C.ar      11 UNK        -0.0753 
     14 C14       -77.5296   28.8478  -71.0482 C.ar      11 UNK        -0.0933 
     15 C15       -75.2946   29.3741  -72.0744 C.3       11 UNK         0.0166 
     16 S16       -74.1778   30.1531  -70.8715 S.3       11 UNK        -0.2615 
     17 C17       -74.2435   31.8974  -71.4232 C.3       11 UNK        -0.0865 
     18 CA        -73.2929   32.2485  -72.6020 C.3       10 UNK         0.0862 
     19 C         -71.7975   32.3135  -72.1696 C.2       10 UNK         0.5551 
     20 N         -70.8815   31.5822  -72.7933 N.am      10 UNK        -0.7319 
     21 O         -71.4580   33.0630  -71.2571 O.2       10 UNK        -0.5018 
     22 N         -73.5605   31.4129  -73.7834 N.am      10 UNK        -0.4509 
     23 C         -73.3738   31.7807  -75.0560 C.2       10 UNK         0.4899 
     24 O         -73.0367   32.9168  -75.3925 O.2       10 UNK        -0.4839 
     25 CA        -73.6083   30.6954  -76.1326 C.3       9 UNK         0.0222 
     26 CB        -72.8806   31.0159  -77.4548 C.3       9 UNK        -0.1966 
     27 N         -73.2918   29.3204  -75.7126 N.am      9 UNK        -0.4218 
     28 C         -72.1321   28.8784  -75.1977 C.2       9 UNK         0.5020 
     29 O         -71.1869   29.6080  -74.8971 O.2       9 UNK        -0.5274 
     30 CA        -72.0007   27.3623  -74.9767 C.3       8 UNK         0.0270 
     31 CB        -72.6435   26.9427  -73.6461 C.3       8 UNK        -0.1976 
     32 N         -72.5593   26.5615  -76.0699 N.am      8 UNK        -0.4313 
     33 C         -72.0665   26.5195  -77.3162 C.2       8 UNK         0.5041 
     34 O         -71.0851   27.1651  -77.6864 O.2       8 UNK        -0.5577 
     35 CA        -72.7593   25.5808  -78.3198 C.3       7 UNK         0.0284 
     36 CB        -71.9331   24.2981  -78.5109 C.3       7 UNK        -0.1958 
     37 N         -74.1262   25.2099  -77.9450 N.am      7 UNK        -0.4454 
     38 C         -75.1975   26.0044  -78.0438 C.2       7 UNK         0.5089 
     39 O         -75.1426   27.1792  -78.4063 O.2       7 UNK        -0.5125 
     40 CA        -76.5612   25.3849  -77.6853 C.3       6 UNK         0.0408 
     41 CB        -77.0277   24.4005  -78.7751 C.3       6 UNK        -0.1791 
     42 N         -76.6308   24.7782  -76.3484 N.am      6 UNK        -0.4762 
     43 C         -75.9619   23.7236  -75.8553 C.2       6 UNK         0.5007 
     44 O         -75.1718   23.0425  -76.5097 O.2       6 UNK        -0.5032 
     45 CA        -76.1896   23.4023  -74.3700 C.3       5 UNK         0.0783 
     46 C46       -75.5400   24.5006  -73.4927 C.3       11 UNK        -0.0857 
     47 S47       -75.2129   23.9798  -71.7760 S.3       11 UNK        -0.2512 
     48 C48       -76.6631   24.6076  -70.8564 C.3       11 UNK         0.0225 
     49 N         -77.6266   23.2750  -74.1253 N.am      5 UNK        -0.4615 
     50 C         -78.2207   22.2451  -73.5147 C.2       4 UNK         0.5053 
     51 O         -77.6212   21.2778  -73.0449 O.2       4 UNK        -0.5105 
     52 CA        -79.7548   22.3030  -73.4240 C.3       4 UNK         0.0263 
     53 CB        -80.2077   23.3344  -72.3760 C.3       4 UNK        -0.1981 
     54 N         -80.3769   22.6114  -74.7131 N.am      4 UNK        -0.4224 
     55 C         -80.3920   21.8028  -75.7812 C.2       3 UNK         0.4895 
     56 O         -79.9084   20.6704  -75.7842 O.2       3 UNK        -0.5091 
     57 CA        -81.0446   22.3329  -77.0743 C.3       3 UNK         0.0250 
     58 CB        -82.5602   22.0509  -77.0897 C.3       3 UNK        -0.1996 
     59 N         -80.7460   23.7416  -77.3800 N.am      3 UNK        -0.4254 
     60 C         -81.1193   24.8396  -76.7089 C.2       2 UNK         0.5004 
     61 O         -81.8708   24.8315  -75.7307 O.2       2 UNK        -0.5226 
     62 CA        -80.5137   26.1695  -77.1925 C.3       2 UNK         0.0269 
     63 CB        -81.4736   26.8743  -78.1636 C.3       2 UNK        -0.1926 
     64 N         -80.1944   27.0807  -76.0880 N.am      2 UNK        -0.4687 
     65 C         -79.4374   26.7854  -75.0194 C.2       1 UNK         0.5165 
     66 O         -78.8344   25.7205  -74.8714 O.2       1 UNK        -0.5079 
     67 H67       -78.5364   31.4836  -75.5143 H         1 UNK         0.0900 
     68 H68       -77.3251   30.8716  -76.6421 H         1 UNK         0.0900 
     69 H69       -76.8409   31.4091  -75.0302 H         1 UNK         0.0900 
     70 H70       -79.7096   29.8865  -74.4588 H         1 UNK         0.2959 
     71 H71       -78.4900   27.5794  -73.3099 H         1 UNK         0.1079 
     72 H72       -80.7449   26.9393  -72.5610 H         1 UNK         0.0837 
     73 H73       -81.4991   28.0246  -73.6939 H         1 UNK         0.0837 
     74 H74       -79.9013   29.1310  -69.5286 H         1 UNK         0.0685 
     75 H75       -80.5658   27.5978  -70.0462 H         1 UNK         0.0685 
     76 H76       -78.9523   25.8720  -70.2580 H         1 UNK         0.1434 
     77 H77       -74.9659   26.7108  -71.6200 H         1 UNK         0.1329 
     78 H78       -77.7805   29.8957  -71.1419 H         1 UNK         0.1335 
     79 H79       -74.7022   28.8628  -72.8307 H         1 UNK         0.0680 
     80 H80       -75.8630   30.1318  -72.6155 H         1 UNK         0.0680 
     81 H81       -75.2702   32.1474  -71.6944 H         1 UNK         0.1032 
     82 H82       -74.0259   32.5314  -70.5615 H         1 UNK         0.1032 
     83 H83       -73.5364   33.2756  -72.8809 H         1 UNK         0.0461 
     84 H84       -69.9205   31.6486  -72.4996 H         1 UNK         0.3453 
     85 H85       -71.1291   30.9594  -73.5571 H         1 UNK         0.3453 
     86 H86       -73.7924   30.4510  -73.5926 H         1 UNK         0.2984 
     87 H87       -74.6791   30.7052  -76.3383 H         1 UNK         0.0554 
     88 H88       -73.0873   30.2609  -78.2137 H         1 UNK         0.0847 
     89 H89       -71.7997   31.0632  -77.3164 H         1 UNK         0.0847 
     90 H90       -73.2010   31.9761  -77.8610 H         1 UNK         0.0847 
     91 H91       -74.0129   28.6367  -75.9020 H         1 UNK         0.3141 
     92 H92       -70.9330   27.1397  -74.9163 H         1 UNK         0.0743 
     93 H93       -73.7298   27.0065  -73.6901 H         1 UNK         0.0784 
     94 H94       -72.3788   25.9176  -73.3857 H         1 UNK         0.0784 
     95 H95       -72.3073   27.5786  -72.8253 H         1 UNK         0.0784 
     96 H96       -73.3612   25.9862  -75.8633 H         1 UNK         0.3213 
     97 H97       -72.7996   26.1060  -79.2768 H         1 UNK         0.0855 
     98 H98       -70.9126   24.5317  -78.8181 H         1 UNK         0.0814 
     99 H99       -72.3635   23.6601  -79.2830 H         1 UNK         0.0814 
    100 H100      -71.8717   23.7166  -77.5900 H         1 UNK         0.0814 
    101 H101      -74.2816   24.2648  -77.5998 H         1 UNK         0.3105 
    102 H102      -77.2719   26.2119  -77.6618 H         1 UNK         0.0547 
    103 H103      -77.0901   24.8960  -79.7449 H         1 UNK         0.0837 
    104 H104      -76.3446   23.5581  -78.8876 H         1 UNK         0.0837 
    105 H105      -78.0135   23.9967  -78.5518 H         1 UNK         0.0837 
    106 H106      -77.2672   25.2579  -75.7154 H         1 UNK         0.3020 
    107 H107      -75.6874   22.4513  -74.1764 H         1 UNK         0.1245 
    108 H108      -76.1398   25.4118  -73.5109 H         1 UNK         0.0781 
    109 H109      -74.5655   24.7761  -73.8977 H         1 UNK         0.0781 
    110 H110      -76.5499   24.3214  -69.8101 H         1 UNK         0.0836 
    111 H111      -77.5419   24.0781  -71.2230 H         1 UNK         0.0836 
    112 H112      -78.2060   24.0396  -74.4638 H         1 UNK         0.3022 
    113 H113      -80.1090   21.3194  -73.1079 H         1 UNK         0.0747 
    114 H114      -79.7999   23.0952  -71.3933 H         1 UNK         0.0793 
    115 H115      -79.8833   24.3443  -72.6302 H         1 UNK         0.0793 
    116 H116      -81.2934   23.3482  -72.2785 H         1 UNK         0.0793 
    117 H117      -80.8297   23.5165  -74.8113 H         1 UNK         0.3047 
    118 H118      -80.6039   21.7620  -77.8935 H         1 UNK         0.0822 
    119 H119      -83.0813   22.5561  -76.2761 H         1 UNK         0.0807 
    120 H120      -82.7561   20.9833  -76.9822 H         1 UNK         0.0807 
    121 H121      -83.0136   22.3703  -78.0280 H         1 UNK         0.0807 
    122 H122      -80.1333   23.8687  -78.1729 H         1 UNK         0.2946 
    123 H123      -79.5827   25.9568  -77.7185 H         1 UNK         0.1144 
    124 H124      -81.7127   26.2335  -79.0136 H         1 UNK         0.0793 
    125 H125      -82.4151   27.1364  -77.6789 H         1 UNK         0.0793 
    126 H126      -81.0351   27.7888  -78.5638 H         1 UNK         0.0793 
    127 H127      -80.6379   27.9870  -76.1136 H         1 UNK         0.2896 
@<TRIPOS>BOND
     1    1    2 1    
     2    1   67 1    
     3    1   68 1    
     4    1   69 1    
     5    2    3 2    
     6    2    4 am   BACKBONE|DICT|INTERRES
     7    4    5 1    
     8    4   70 1    
     9    5    6 1    
    10    5   65 1    
    11    5   71 1    
    12    6    7 1    
    13    6   72 1    
    14    6   73 1    
    15    7    8 1    
    16    8    9 1    
    17    8   74 1    
    18    8   75 1    
    19    9   10 ar   
    20    9   14 ar   
    21   10   11 ar   
    22   10   76 1    
    23   11   12 ar   
    24   11   48 1    
    25   12   13 ar   
    26   12   77 1    
    27   13   14 ar   
    28   13   15 1    
    29   14   78 1    
    30   15   16 1    
    31   15   79 1    
    32   15   80 1    
    33   16   17 1    
    34   17   18 1    
    35   17   81 1    
    36   17   82 1    
    37   18   19 1    
    38   18   22 1    
    39   18   83 1    
    40   19   20 am   BACKBONE|DICT|INTERRES
    41   19   21 2    
    42   20   84 1    
    43   20   85 1    
    44   22   23 am   BACKBONE|DICT|INTERRES
    45   22   86 1    
    46   23   24 2    
    47   23   25 1    
    48   25   26 1    
    49   25   27 1    
    50   25   87 1    
    51   26   88 1    
    52   26   89 1    
    53   26   90 1    
    54   27   28 am   BACKBONE|DICT|INTERRES
    55   27   91 1    
    56   28   29 2    
    57   28   30 1    
    58   30   31 1    
    59   30   32 1    
    60   30   92 1    
    61   31   93 1    
    62   31   94 1    
    63   31   95 1    
    64   32   33 am   BACKBONE|DICT|INTERRES
    65   32   96 1    
    66   33   34 2    
    67   33   35 1    
    68   35   36 1    
    69   35   37 1    
    70   35   97 1    
    71   36   98 1    
    72   36   99 1    
    73   36  100 1    
    74   37   38 am   BACKBONE|DICT|INTERRES
    75   37  101 1    
    76   38   39 2    
    77   38   40 1    
    78   40   41 1    
    79   40   42 1    
    80   40  102 1    
    81   41  103 1    
    82   41  104 1    
    83   41  105 1    
    84   42   43 am   BACKBONE|DICT|INTERRES
    85   42  106 1    
    86   43   44 2    
    87   43   45 1    
    88   45   46 1    
    89   45   49 1    
    90   45  107 1    
    91   46   47 1    
    92   46  108 1    
    93   46  109 1    
    94   47   48 1    
    95   48  110 1    
    96   48  111 1    
    97   49   50 am   BACKBONE|DICT|INTERRES
    98   49  112 1    
    99   50   51 2    
   100   50   52 1    
   101   52   53 1    
   102   52   54 1    
   103   52  113 1    
   104   53  114 1    
   105   53  115 1    
   106   53  116 1    
   107   54   55 am   BACKBONE|DICT|INTERRES
   108   54  117 1    
   109   55   56 2    
   110   55   57 1    
   111   57   58 1    
   112   57   59 1    
   113   57  118 1    
   114   58  119 1    
   115   58  120 1    
   116   58  121 1    
   117   59   60 am   BACKBONE|DICT|INTERRES
   118   59  122 1    
   119   60   61 2    
   120   60   62 1    
   121   62   63 1    
   122   62   64 1    
   123   62  123 1    
   124   63  124 1    
   125   63  125 1    
   126   63  126 1    
   127   64   65 am   BACKBONE|DICT|INTERRES
   128   64  127 1    
   129   65   66 2    
@<TRIPOS>SUBSTRUCTURE
     1 UNK         1 GROUP             0       ****    0 ROOT    
