@<TRIPOS>MOLECULE
3R135
127   129    1
SMALL
USER_CHARGES


@<TRIPOS>ATOM
      1 CA        -80.9507   24.9122  -71.4245 C.3       0 UNK        -0.1998 
      2 C         -80.3291   25.4856  -72.6883 C.2       0 UNK         0.4909 
      3 O         -79.1296   25.3115  -72.8990 O.2       0 UNK        -0.5240 
      4 N         -81.1449   26.1644  -73.5110 N.am      1 UNK        -0.4739 
      5 CA        -80.8212   26.7720  -74.8117 C.3       1 UNK         0.0864 
      6 C6        -79.7311   27.8721  -74.7439 C.3       11 UNK        -0.0881 
      7 S7        -80.3349   29.3661  -73.8853 S.3       11 UNK        -0.2682 
      8 C8        -79.5696   29.2253  -72.2359 C.3       11 UNK         0.0289 
      9 C9        -78.0500   29.2862  -72.2944 C.ar      11 UNK        -0.0687 
     10 C10       -77.2845   28.2114  -71.8372 C.ar      11 UNK        -0.0823 
     11 C11       -75.8899   28.2412  -71.9328 C.ar      11 UNK        -0.0830 
     12 C12       -75.2666   29.3650  -72.4850 C.ar      11 UNK        -0.1021 
     13 C13       -76.0163   30.4714  -72.9107 C.ar      11 UNK        -0.0753 
     14 C14       -77.4090   30.4169  -72.8070 C.ar      11 UNK        -0.0933 
     15 C15       -75.3968   31.7485  -73.4884 C.3       11 UNK         0.0166 
     16 S16       -73.6077   31.7082  -73.8472 S.3       11 UNK        -0.2615 
     17 C17       -72.8919   31.8478  -72.1734 C.3       11 UNK        -0.0865 
     18 CA        -71.3670   31.5621  -72.1354 C.3       10 UNK         0.0862 
     19 C         -70.8343   31.6767  -70.6762 C.2       10 UNK         0.5551 
     20 N         -70.3652   30.6026  -70.0528 N.am      10 UNK        -0.7319 
     21 O         -70.8485   32.7629  -70.1023 O.2       10 UNK        -0.5018 
     22 N         -71.0052   30.3192  -72.8442 N.am      10 UNK        -0.4509 
     23 C         -69.7652   29.9880  -73.2221 C.2       10 UNK         0.4899 
     24 O         -68.7729   30.6813  -72.9970 O.2       10 UNK        -0.4839 
     25 CA        -69.5888   28.6742  -74.0013 C.3       9 UNK         0.0222 
     26 CB        -69.6873   27.4473  -73.0718 C.3       9 UNK        -0.1966 
     27 N         -70.4577   28.5513  -75.1812 N.am      9 UNK        -0.4218 
     28 C         -71.7822   28.3532  -75.2352 C.2       9 UNK         0.5020 
     29 O         -72.5066   28.2501  -74.2417 O.2       9 UNK        -0.5274 
     30 CA        -72.3726   28.2149  -76.6488 C.3       8 UNK         0.0270 
     31 CB        -71.9358   26.8843  -77.2863 C.3       8 UNK        -0.1976 
     32 N         -73.8343   28.2567  -76.6077 N.am      8 UNK        -0.4313 
     33 C         -74.5775   29.3531  -76.8096 C.2       8 UNK         0.5041 
     34 O         -74.1078   30.4351  -77.1675 O.2       8 UNK        -0.5577 
     35 CA        -76.0991   29.2185  -76.5764 C.3       7 UNK         0.0284 
     36 CB        -76.9202   30.3309  -77.2611 C.3       7 UNK        -0.1958 
     37 N         -76.6337   27.8936  -76.9127 N.am      7 UNK        -0.4454 
     38 C         -76.6024   27.2627  -78.0981 C.2       7 UNK         0.5089 
     39 O         -76.1753   27.7643  -79.1386 O.2       7 UNK        -0.5125 
     40 CA        -77.1286   25.8093  -78.0976 C.3       6 UNK         0.0408 
     41 CB        -76.5521   24.9585  -79.2477 C.3       6 UNK        -0.1791 
     42 N         -76.9431   25.1406  -76.8004 N.am      6 UNK        -0.4762 
     43 C         -75.7793   24.9288  -76.1671 C.2       6 UNK         0.5007 
     44 O         -74.6784   25.1580  -76.6654 O.2       6 UNK        -0.5032 
     45 CA        -75.8476   24.5084  -74.6896 C.3       5 UNK         0.0783 
     46 C46       -75.7243   25.7807  -73.8222 C.3       11 UNK        -0.0857 
     47 S47       -75.6278   25.4441  -72.0377 S.3       11 UNK        -0.2512 
     48 C48       -75.0440   27.0675  -71.4407 C.3       11 UNK         0.0225 
     49 N         -77.0411   23.7217  -74.3545 N.am      5 UNK        -0.4615 
     50 C         -77.2082   22.4439  -74.7164 C.2       4 UNK         0.5053 
     51 O         -76.4531   21.8490  -75.4862 O.2       4 UNK        -0.5105 
     52 CA        -78.3704   21.6761  -74.0789 C.3       4 UNK         0.0263 
     53 CB        -78.4164   21.8291  -72.5451 C.3       4 UNK        -0.1981 
     54 N         -79.6552   22.0364  -74.6795 N.am      4 UNK        -0.4224 
     55 C         -80.6731   21.1694  -74.8088 C.2       3 UNK         0.4895 
     56 O         -80.6083   19.9917  -74.4517 O.2       3 UNK        -0.5091 
     57 CA        -82.0041   21.6654  -75.4062 C.3       3 UNK         0.0250 
     58 CB        -83.0478   21.8522  -74.2916 C.3       3 UNK        -0.1996 
     59 N         -81.8983   22.9118  -76.1596 N.am      3 UNK        -0.4254 
     60 C         -81.3202   23.0554  -77.3597 C.2       2 UNK         0.5004 
     61 O         -80.8621   22.1213  -78.0175 O.2       2 UNK        -0.5226 
     62 CA        -81.2205   24.4938  -77.9080 C.3       2 UNK         0.0269 
     63 CB        -82.2825   24.7331  -78.9932 C.3       2 UNK        -0.1926 
     64 N         -81.3419   25.5357  -76.8751 N.am      2 UNK        -0.4687 
     65 C         -80.4835   25.6908  -75.8571 C.2       1 UNK         0.5165 
     66 O         -79.4829   24.9857  -75.7252 O.2       1 UNK        -0.5079 
     67 H67       -80.9341   23.8233  -71.4612 H         1 UNK         0.0900 
     68 H68       -80.3832   25.2327  -70.5513 H         1 UNK         0.0900 
     69 H69       -81.9837   25.2334  -71.2937 H         1 UNK         0.0900 
     70 H70       -82.1147   26.2573  -73.2430 H         1 UNK         0.2959 
     71 H71       -81.7419   27.2546  -75.1444 H         1 UNK         0.1079 
     72 H72       -79.4442   28.1863  -75.7492 H         1 UNK         0.0837 
     73 H73       -78.8186   27.5016  -74.2768 H         1 UNK         0.0837 
     74 H74       -79.9078   28.3030  -71.7626 H         1 UNK         0.0685 
     75 H75       -79.9316   30.0418  -71.6099 H         1 UNK         0.0685 
     76 H76       -77.7738   27.3365  -71.4303 H         1 UNK         0.1434 
     77 H77       -74.1914   29.3646  -72.5749 H         1 UNK         0.1329 
     78 H78       -78.0045   31.2542  -73.1452 H         1 UNK         0.1335 
     79 H79       -75.9068   31.9839  -74.4237 H         1 UNK         0.0680 
     80 H80       -75.6003   32.5793  -72.8114 H         1 UNK         0.0680 
     81 H81       -73.4190   31.1806  -71.4908 H         1 UNK         0.1032 
     82 H82       -73.0918   32.8578  -71.8101 H         1 UNK         0.1032 
     83 H83       -70.8840   32.3721  -72.6856 H         1 UNK         0.0461 
     84 H84       -70.0204   30.6877  -69.1097 H         1 UNK         0.3453 
     85 H85       -70.3486   29.7110  -70.5204 H         1 UNK         0.3453 
     86 H86       -71.7650   29.7030  -73.1167 H         1 UNK         0.2984 
     87 H87       -68.5728   28.6863  -74.3994 H         1 UNK         0.0554 
     88 H88       -68.9495   27.5083  -72.2709 H         1 UNK         0.0847 
     89 H89       -69.4976   26.5222  -73.6159 H         1 UNK         0.0847 
     90 H90       -70.6666   27.3622  -72.6001 H         1 UNK         0.0847 
     91 H91       -69.9733   28.6441  -76.0638 H         1 UNK         0.3141 
     92 H92       -71.9957   29.0349  -77.2636 H         1 UNK         0.0743 
     93 H93       -70.8606   26.8653  -77.4669 H         1 UNK         0.0784 
     94 H94       -72.4264   26.7235  -78.2468 H         1 UNK         0.0784 
     95 H95       -72.1707   26.0334  -76.6458 H         1 UNK         0.0784 
     96 H96       -74.2889   27.3980  -76.3282 H         1 UNK         0.3213 
     97 H97       -76.2387   29.3300  -75.5006 H         1 UNK         0.0855 
     98 H98       -76.7989   30.3137  -78.3444 H         1 UNK         0.0814 
     99 H99       -76.6079   31.3167  -76.9144 H         1 UNK         0.0814 
    100 H100      -77.9826   30.2337  -77.0380 H         1 UNK         0.0814 
    101 H101      -77.0120   27.3696  -76.1379 H         1 UNK         0.3105 
    102 H102      -78.2055   25.8826  -78.2498 H         1 UNK         0.0547 
    103 H103      -76.9401   23.9404  -79.2200 H         1 UNK         0.0837 
    104 H104      -75.4639   24.9049  -79.2072 H         1 UNK         0.0837 
    105 H105      -76.8191   25.3802  -80.2174 H         1 UNK         0.0837 
    106 H106      -77.8044   24.9382  -76.2906 H         1 UNK         0.3020 
    107 H107      -74.9714   23.8835  -74.5004 H         1 UNK         0.1245 
    108 H108      -76.5792   26.4367  -73.9940 H         1 UNK         0.0781 
    109 H109      -74.8338   26.3514  -74.0978 H         1 UNK         0.0781 
    110 H110      -74.0038   27.1899  -71.7483 H         1 UNK         0.0836 
    111 H111      -75.0447   27.0642  -70.3502 H         1 UNK         0.0836 
    112 H112      -77.7276   24.1768  -73.7564 H         1 UNK         0.3022 
    113 H113      -78.1683   20.6230  -74.2884 H         1 UNK         0.0747 
    114 H114      -79.1386   21.1433  -72.1022 H         1 UNK         0.0793 
    115 H115      -77.4453   21.6053  -72.1015 H         1 UNK         0.0793 
    116 H116      -78.6880   22.8376  -72.2387 H         1 UNK         0.0793 
    117 H117      -79.7426   22.9861  -75.0272 H         1 UNK         0.3047 
    118 H118      -82.3629   20.8894  -76.0860 H         1 UNK         0.0822 
    119 H119      -84.0206   22.1279  -74.6993 H         1 UNK         0.0807 
    120 H120      -82.7476   22.6247  -73.5822 H         1 UNK         0.0807 
    121 H121      -83.1867   20.9289  -73.7272 H         1 UNK         0.0807 
    122 H122      -82.2553   23.7418  -75.7106 H         1 UNK         0.2946 
    123 H123      -80.2343   24.5862  -78.3674 H         1 UNK         0.1144 
    124 H124      -82.1650   25.7136  -79.4551 H         1 UNK         0.0793 
    125 H125      -83.2939   24.6689  -78.5901 H         1 UNK         0.0793 
    126 H126      -82.2016   23.9914  -79.7893 H         1 UNK         0.0793 
    127 H127      -82.1483   26.1414  -76.9397 H         1 UNK         0.2896 
@<TRIPOS>BOND
     1    1    2 1    
     2    1   67 1    
     3    1   68 1    
     4    1   69 1    
     5    2    3 2    
     6    2    4 am   BACKBONE|DICT|INTERRES
     7    4    5 1    
     8    4   70 1    
     9    5    6 1    
    10    5   65 1    
    11    5   71 1    
    12    6    7 1    
    13    6   72 1    
    14    6   73 1    
    15    7    8 1    
    16    8    9 1    
    17    8   74 1    
    18    8   75 1    
    19    9   10 ar   
    20    9   14 ar   
    21   10   11 ar   
    22   10   76 1    
    23   11   12 ar   
    24   11   48 1    
    25   12   13 ar   
    26   12   77 1    
    27   13   14 ar   
    28   13   15 1    
    29   14   78 1    
    30   15   16 1    
    31   15   79 1    
    32   15   80 1    
    33   16   17 1    
    34   17   18 1    
    35   17   81 1    
    36   17   82 1    
    37   18   19 1    
    38   18   22 1    
    39   18   83 1    
    40   19   20 am   BACKBONE|DICT|INTERRES
    41   19   21 2    
    42   20   84 1    
    43   20   85 1    
    44   22   23 am   BACKBONE|DICT|INTERRES
    45   22   86 1    
    46   23   24 2    
    47   23   25 1    
    48   25   26 1    
    49   25   27 1    
    50   25   87 1    
    51   26   88 1    
    52   26   89 1    
    53   26   90 1    
    54   27   28 am   BACKBONE|DICT|INTERRES
    55   27   91 1    
    56   28   29 2    
    57   28   30 1    
    58   30   31 1    
    59   30   32 1    
    60   30   92 1    
    61   31   93 1    
    62   31   94 1    
    63   31   95 1    
    64   32   33 am   BACKBONE|DICT|INTERRES
    65   32   96 1    
    66   33   34 2    
    67   33   35 1    
    68   35   36 1    
    69   35   37 1    
    70   35   97 1    
    71   36   98 1    
    72   36   99 1    
    73   36  100 1    
    74   37   38 am   BACKBONE|DICT|INTERRES
    75   37  101 1    
    76   38   39 2    
    77   38   40 1    
    78   40   41 1    
    79   40   42 1    
    80   40  102 1    
    81   41  103 1    
    82   41  104 1    
    83   41  105 1    
    84   42   43 am   BACKBONE|DICT|INTERRES
    85   42  106 1    
    86   43   44 2    
    87   43   45 1    
    88   45   46 1    
    89   45   49 1    
    90   45  107 1    
    91   46   47 1    
    92   46  108 1    
    93   46  109 1    
    94   47   48 1    
    95   48  110 1    
    96   48  111 1    
    97   49   50 am   BACKBONE|DICT|INTERRES
    98   49  112 1    
    99   50   51 2    
   100   50   52 1    
   101   52   53 1    
   102   52   54 1    
   103   52  113 1    
   104   53  114 1    
   105   53  115 1    
   106   53  116 1    
   107   54   55 am   BACKBONE|DICT|INTERRES
   108   54  117 1    
   109   55   56 2    
   110   55   57 1    
   111   57   58 1    
   112   57   59 1    
   113   57  118 1    
   114   58  119 1    
   115   58  120 1    
   116   58  121 1    
   117   59   60 am   BACKBONE|DICT|INTERRES
   118   59  122 1    
   119   60   61 2    
   120   60   62 1    
   121   62   63 1    
   122   62   64 1    
   123   62  123 1    
   124   63  124 1    
   125   63  125 1    
   126   63  126 1    
   127   64   65 am   BACKBONE|DICT|INTERRES
   128   64  127 1    
   129   65   66 2    
@<TRIPOS>SUBSTRUCTURE
     1 UNK         1 GROUP             0       ****    0 ROOT    
