@<TRIPOS>MOLECULE
3R135
127   129    1
SMALL
USER_CHARGES


@<TRIPOS>ATOM
      1 CA        -85.3458   28.9351  -74.1722 C.3       0 UNK        -0.1998 
      2 C         -84.1138   28.7262  -75.0398 C.2       0 UNK         0.4909 
      3 O         -84.1764   28.9310  -76.2523 O.2       0 UNK        -0.5240 
      4 N         -82.9948   28.3150  -74.4288 N.am      1 UNK        -0.4739 
      5 CA        -81.7093   28.0783  -75.1054 C.3       1 UNK         0.0864 
      6 C6        -80.5086   28.2057  -74.1317 C.3       11 UNK        -0.0881 
      7 S7        -80.4233   29.8775  -73.4030 S.3       11 UNK        -0.2682 
      8 C8        -80.4428   29.5325  -71.6145 C.3       11 UNK         0.0289 
      9 C9        -79.0475   29.2307  -71.0869 C.ar      11 UNK        -0.0687 
     10 C10       -78.7045   27.9442  -70.6562 C.ar      11 UNK        -0.0823 
     11 C11       -77.4173   27.6824  -70.1737 C.ar      11 UNK        -0.0830 
     12 C12       -76.4829   28.7201  -70.1000 C.ar      11 UNK        -0.1021 
     13 C13       -76.8050   29.9998  -70.5557 C.ar      11 UNK        -0.0753 
     14 C14       -78.0931   30.2521  -71.0343 C.ar      11 UNK        -0.0933 
     15 C15       -75.7554   31.1015  -70.5593 C.3       11 UNK         0.0166 
     16 S16       -74.7415   31.0479  -72.0745 S.3       11 UNK        -0.2615 
     17 C17       -73.6120   29.6590  -71.7142 C.3       11 UNK        -0.0865 
     18 CA        -72.2661   29.7792  -72.4707 C.3       10 UNK         0.0862 
     19 C         -71.2391   28.7502  -71.9327 C.2       10 UNK         0.5551 
     20 N         -70.2282   29.1998  -71.2025 N.am      10 UNK        -0.7319 
     21 O         -71.3805   27.5461  -72.1344 O.2       10 UNK        -0.5018 
     22 N         -72.4429   29.5990  -73.9158 N.am      10 UNK        -0.4509 
     23 C         -71.6319   30.1096  -74.8484 C.2       10 UNK         0.4899 
     24 O         -70.7171   30.9007  -74.6100 O.2       10 UNK        -0.4839 
     25 CA        -71.8886   29.6239  -76.2858 C.3       9 UNK         0.0222 
     26 CB        -70.9788   30.2971  -77.3352 C.3       9 UNK        -0.1966 
     27 N         -71.8128   28.1621  -76.3745 N.am      9 UNK        -0.4218 
     28 C         -70.7558   27.3708  -76.1309 C.2       9 UNK         0.5020 
     29 O         -69.6288   27.7831  -75.8533 O.2       9 UNK        -0.5274 
     30 CA        -70.9900   25.8489  -76.2024 C.3       8 UNK         0.0270 
     31 CB        -71.1312   25.2651  -74.7874 C.3       8 UNK        -0.1976 
     32 N         -72.1672   25.4716  -76.9884 N.am      8 UNK        -0.4313 
     33 C         -72.2762   25.5837  -78.3194 C.2       8 UNK         0.5041 
     34 O         -71.3596   25.9476  -79.0569 O.2       8 UNK        -0.5577 
     35 CA        -73.6562   25.2723  -78.9211 C.3       7 UNK         0.0284 
     36 CB        -73.8409   23.7596  -79.1266 C.3       7 UNK        -0.1958 
     37 N         -74.7425   25.7986  -78.0896 N.am      7 UNK        -0.4454 
     38 C         -75.0541   27.0984  -77.9845 C.2       7 UNK         0.5089 
     39 O         -74.4977   27.9908  -78.6233 O.2       7 UNK        -0.5125 
     40 CA        -76.1495   27.4719  -76.9732 C.3       6 UNK         0.0408 
     41 CB        -77.5389   27.3963  -77.6230 C.3       6 UNK        -0.1791 
     42 N         -76.1222   26.6273  -75.7784 N.am      6 UNK        -0.4762 
     43 C         -75.1967   26.7159  -74.8095 C.2       6 UNK         0.5007 
     44 O         -74.2785   27.5359  -74.8119 O.2       6 UNK        -0.5032 
     45 CA        -75.3163   25.7108  -73.6443 C.3       5 UNK         0.0783 
     46 C46       -76.2839   26.2999  -72.5910 C.3       11 UNK        -0.0857 
     47 S47       -76.7373   25.1665  -71.2279 S.3       11 UNK        -0.2512 
     48 C48       -77.0004   26.2683  -69.7882 C.3       11 UNK         0.0225 
     49 N         -75.7325   24.3776  -74.0853 N.am      5 UNK        -0.4615 
     50 C         -75.1633   23.6332  -75.0423 C.2       4 UNK         0.5053 
     51 O         -74.1336   23.9546  -75.6334 O.2       4 UNK        -0.5105 
     52 CA        -75.8914   22.3389  -75.4527 C.3       4 UNK         0.0263 
     53 CB        -75.1480   21.1124  -74.9012 C.3       4 UNK        -0.1981 
     54 N         -77.3010   22.2790  -75.0402 N.am      4 UNK        -0.4224 
     55 C         -78.2566   23.1454  -75.4069 C.2       3 UNK         0.4895 
     56 O         -78.0659   24.1058  -76.1596 O.2       3 UNK        -0.5091 
     57 CA        -79.6282   22.9417  -74.7567 C.3       3 UNK         0.0250 
     58 CB        -79.5991   23.3732  -73.2763 C.3       3 UNK        -0.1996 
     59 N         -80.6188   23.7347  -75.4747 N.am      3 UNK        -0.4254 
     60 C         -81.9354   23.5102  -75.4974 C.2       2 UNK         0.5004 
     61 O         -82.4778   22.5687  -74.9148 O.2       2 UNK        -0.5226 
     62 CA        -82.7846   24.5385  -76.2675 C.3       2 UNK         0.0269 
     63 CB        -84.2739   24.1503  -76.3363 C.3       2 UNK        -0.1926 
     64 N         -82.6722   25.8668  -75.6598 N.am      2 UNK        -0.4687 
     65 C         -81.6690   26.7328  -75.8634 C.2       1 UNK         0.5165 
     66 O         -80.7231   26.4928  -76.6145 O.2       1 UNK        -0.5079 
     67 H67       -85.6862   29.9675  -74.2476 H         1 UNK         0.0900 
     68 H68       -86.1540   28.2844  -74.5050 H         1 UNK         0.0900 
     69 H69       -85.1471   28.7201  -73.1224 H         1 UNK         0.0900 
     70 H70       -82.9956   28.1773  -73.4283 H         1 UNK         0.2959 
     71 H71       -81.5883   28.8475  -75.8720 H         1 UNK         0.1079 
     72 H72       -79.5655   28.0296  -74.6533 H         1 UNK         0.0837 
     73 H73       -80.5640   27.4506  -73.3456 H         1 UNK         0.0837 
     74 H74       -81.1364   28.7195  -71.3950 H         1 UNK         0.0685 
     75 H75       -80.8317   30.4101  -71.0961 H         1 UNK         0.0685 
     76 H76       -79.4266   27.1415  -70.7171 H         1 UNK         0.1434 
     77 H77       -75.4855   28.5189  -69.7345 H         1 UNK         0.1329 
     78 H78       -78.3503   31.2413  -71.3880 H         1 UNK         0.1335 
     79 H79       -76.2414   32.0765  -70.5002 H         1 UNK         0.0680 
     80 H80       -75.1193   31.0278  -69.6760 H         1 UNK         0.0680 
     81 H81       -74.1081   28.7209  -71.9636 H         1 UNK         0.1032 
     82 H82       -73.4320   29.6348  -70.6377 H         1 UNK         0.1032 
     83 H83       -71.8747   30.7827  -72.2892 H         1 UNK         0.0461 
     84 H84       -69.5613   28.5413  -70.8316 H         1 UNK         0.3453 
     85 H85       -70.1087   30.1858  -71.0287 H         1 UNK         0.3453 
     86 H86       -73.1344   28.9091  -74.1990 H         1 UNK         0.2984 
     87 H87       -72.9192   29.8903  -76.5258 H         1 UNK         0.0554 
     88 H88       -71.1162   31.3789  -77.3306 H         1 UNK         0.0847 
     89 H89       -71.2082   29.9447  -78.3409 H         1 UNK         0.0847 
     90 H90       -69.9224   30.1049  -77.1454 H         1 UNK         0.0847 
     91 H91       -72.6983   27.6992  -76.5295 H         1 UNK         0.3141 
     92 H92       -70.1116   25.4026  -76.6731 H         1 UNK         0.0743 
     93 H93       -70.2548   25.4944  -74.1796 H         1 UNK         0.0784 
     94 H94       -71.9994   25.6751  -74.2699 H         1 UNK         0.0784 
     95 H95       -71.2365   24.1803  -74.8119 H         1 UNK         0.0784 
     96 H96       -72.9499   25.0708  -76.4729 H         1 UNK         0.3213 
     97 H97       -73.7098   25.7556  -79.8994 H         1 UNK         0.0855 
     98 H98       -73.7885   23.2086  -78.1872 H         1 UNK         0.0814 
     99 H99       -73.0634   23.3604  -79.7794 H         1 UNK         0.0814 
    100 H100      -74.8003   23.5367  -79.5935 H         1 UNK         0.0814 
    101 H101      -75.2276   25.1403  -77.4967 H         1 UNK         0.3105 
    102 H102      -75.9780   28.5059  -76.6656 H         1 UNK         0.0547 
    103 H103      -77.8020   26.3758  -77.9051 H         1 UNK         0.0837 
    104 H104      -77.5840   28.0076  -78.5253 H         1 UNK         0.0837 
    105 H105      -78.3103   27.7638  -76.9468 H         1 UNK         0.0837 
    106 H106      -76.8296   25.9031  -75.7157 H         1 UNK         0.3020 
    107 H107      -74.3265   25.6078  -73.1946 H         1 UNK         0.1245 
    108 H108      -77.2187   26.6259  -73.0531 H         1 UNK         0.0781 
    109 H109      -75.8218   27.1943  -72.1787 H         1 UNK         0.0781 
    110 H110      -76.0819   26.2913  -69.1996 H         1 UNK         0.0836 
    111 H111      -77.7597   25.8283  -69.1402 H         1 UNK         0.0836 
    112 H112      -76.5595   24.0159  -73.6350 H         1 UNK         0.3022 
    113 H113      -75.8670   22.2931  -76.5434 H         1 UNK         0.0747 
    114 H114      -75.5901   20.1835  -75.2620 H         1 UNK         0.0793 
    115 H115      -74.1034   21.1144  -75.2168 H         1 UNK         0.0793 
    116 H116      -75.1584   21.0902  -73.8107 H         1 UNK         0.0793 
    117 H117      -77.5480   21.5293  -74.4095 H         1 UNK         0.3047 
    118 H118      -79.8896   21.8839  -74.8316 H         1 UNK         0.0822 
    119 H119      -80.5671   23.2206  -72.7988 H         1 UNK         0.0807 
    120 H120      -79.3398   24.4277  -73.1699 H         1 UNK         0.0807 
    121 H121      -78.8694   22.7979  -72.7054 H         1 UNK         0.0807 
    122 H122      -80.2402   24.5209  -75.9969 H         1 UNK         0.2946 
    123 H123      -82.4018   24.5757  -77.2904 H         1 UNK         0.1144 
    124 H124      -84.8431   24.8683  -76.9271 H         1 UNK         0.0793 
    125 H125      -84.7261   24.0984  -75.3450 H         1 UNK         0.0793 
    126 H126      -84.4015   23.1737  -76.8054 H         1 UNK         0.0793 
    127 H127      -83.3966   26.1307  -75.0081 H         1 UNK         0.2896 
@<TRIPOS>BOND
     1    1    2 1    
     2    1   67 1    
     3    1   68 1    
     4    1   69 1    
     5    2    3 2    
     6    2    4 am   BACKBONE|DICT|INTERRES
     7    4    5 1    
     8    4   70 1    
     9    5    6 1    
    10    5   65 1    
    11    5   71 1    
    12    6    7 1    
    13    6   72 1    
    14    6   73 1    
    15    7    8 1    
    16    8    9 1    
    17    8   74 1    
    18    8   75 1    
    19    9   10 ar   
    20    9   14 ar   
    21   10   11 ar   
    22   10   76 1    
    23   11   12 ar   
    24   11   48 1    
    25   12   13 ar   
    26   12   77 1    
    27   13   14 ar   
    28   13   15 1    
    29   14   78 1    
    30   15   16 1    
    31   15   79 1    
    32   15   80 1    
    33   16   17 1    
    34   17   18 1    
    35   17   81 1    
    36   17   82 1    
    37   18   19 1    
    38   18   22 1    
    39   18   83 1    
    40   19   20 am   BACKBONE|DICT|INTERRES
    41   19   21 2    
    42   20   84 1    
    43   20   85 1    
    44   22   23 am   BACKBONE|DICT|INTERRES
    45   22   86 1    
    46   23   24 2    
    47   23   25 1    
    48   25   26 1    
    49   25   27 1    
    50   25   87 1    
    51   26   88 1    
    52   26   89 1    
    53   26   90 1    
    54   27   28 am   BACKBONE|DICT|INTERRES
    55   27   91 1    
    56   28   29 2    
    57   28   30 1    
    58   30   31 1    
    59   30   32 1    
    60   30   92 1    
    61   31   93 1    
    62   31   94 1    
    63   31   95 1    
    64   32   33 am   BACKBONE|DICT|INTERRES
    65   32   96 1    
    66   33   34 2    
    67   33   35 1    
    68   35   36 1    
    69   35   37 1    
    70   35   97 1    
    71   36   98 1    
    72   36   99 1    
    73   36  100 1    
    74   37   38 am   BACKBONE|DICT|INTERRES
    75   37  101 1    
    76   38   39 2    
    77   38   40 1    
    78   40   41 1    
    79   40   42 1    
    80   40  102 1    
    81   41  103 1    
    82   41  104 1    
    83   41  105 1    
    84   42   43 am   BACKBONE|DICT|INTERRES
    85   42  106 1    
    86   43   44 2    
    87   43   45 1    
    88   45   46 1    
    89   45   49 1    
    90   45  107 1    
    91   46   47 1    
    92   46  108 1    
    93   46  109 1    
    94   47   48 1    
    95   48  110 1    
    96   48  111 1    
    97   49   50 am   BACKBONE|DICT|INTERRES
    98   49  112 1    
    99   50   51 2    
   100   50   52 1    
   101   52   53 1    
   102   52   54 1    
   103   52  113 1    
   104   53  114 1    
   105   53  115 1    
   106   53  116 1    
   107   54   55 am   BACKBONE|DICT|INTERRES
   108   54  117 1    
   109   55   56 2    
   110   55   57 1    
   111   57   58 1    
   112   57   59 1    
   113   57  118 1    
   114   58  119 1    
   115   58  120 1    
   116   58  121 1    
   117   59   60 am   BACKBONE|DICT|INTERRES
   118   59  122 1    
   119   60   61 2    
   120   60   62 1    
   121   62   63 1    
   122   62   64 1    
   123   62  123 1    
   124   63  124 1    
   125   63  125 1    
   126   63  126 1    
   127   64   65 am   BACKBONE|DICT|INTERRES
   128   64  127 1    
   129   65   66 2    
@<TRIPOS>SUBSTRUCTURE
     1 UNK         1 GROUP             0       ****    0 ROOT    
