@<TRIPOS>MOLECULE
3R135
127   129    1
SMALL
USER_CHARGES


@<TRIPOS>ATOM
      1 CA        -79.5335   20.8937  -72.2769 C.3       0 UNK        -0.1998 
      2 C         -80.4084   21.9803  -71.6698 C.2       0 UNK         0.4909 
      3 O         -80.9951   21.7715  -70.6069 O.2       0 UNK        -0.5240 
      4 N         -80.4952   23.1342  -72.3356 N.am      1 UNK        -0.4739 
      5 CA        -81.2741   24.3019  -71.9225 C.3       1 UNK         0.0864 
      6 C6        -80.4078   25.3375  -71.1502 C.3       11 UNK        -0.0881 
      7 S7        -78.9382   25.9143  -72.0707 S.3       11 UNK        -0.2682 
      8 C8        -79.2107   27.7095  -72.1233 C.3       11 UNK         0.0289 
      9 C9        -78.0661   28.3828  -72.8566 C.ar      11 UNK        -0.0687 
     10 C10       -78.1368   28.5747  -74.2393 C.ar      11 UNK        -0.0823 
     11 C11       -77.0559   29.1278  -74.9301 C.ar      11 UNK        -0.0830 
     12 C12       -75.9155   29.5196  -74.2239 C.ar      11 UNK        -0.1021 
     13 C13       -75.8480   29.3617  -72.8370 C.ar      11 UNK        -0.0753 
     14 C14       -76.9246   28.7864  -72.1574 C.ar      11 UNK        -0.0933 
     15 C15       -74.6025   29.8021  -72.0864 C.3       11 UNK         0.0166 
     16 S16       -74.5334   31.6160  -71.9662 S.3       11 UNK        -0.2615 
     17 C17       -72.7424   31.9036  -71.7701 C.3       11 UNK        -0.0865 
     18 CA        -72.0552   32.2435  -73.1209 C.3       10 UNK         0.0862 
     19 C         -70.6158   32.7981  -72.9021 C.2       10 UNK         0.5551 
     20 N         -69.5666   32.1981  -73.4525 N.am      10 UNK        -0.7319 
     21 O         -70.4485   33.8069  -72.2211 O.2       10 UNK        -0.5018 
     22 N         -72.1293   31.1114  -74.0576 N.am      10 UNK        -0.4509 
     23 C         -72.1069   31.2021  -75.3924 C.2       10 UNK         0.4899 
     24 O         -72.1132   32.2710  -76.0049 O.2       10 UNK        -0.4839 
     25 CA        -72.0647   29.8660  -76.1677 C.3       9 UNK         0.0222 
     26 CB        -71.4649   30.0222  -77.5804 C.3       9 UNK        -0.1966 
     27 N         -71.3929   28.7717  -75.4480 N.am      9 UNK        -0.4218 
     28 C         -70.1381   28.7715  -74.9619 C.2       9 UNK         0.5020 
     29 O         -69.3788   29.7387  -75.0316 O.2       9 UNK        -0.5274 
     30 CA        -69.6464   27.5054  -74.2341 C.3       8 UNK         0.0270 
     31 CB        -69.7421   27.7013  -72.7115 C.3       8 UNK        -0.1976 
     32 N         -70.3731   26.2906  -74.6056 N.am      8 UNK        -0.4313 
     33 C         -70.3243   25.7018  -75.8081 C.2       8 UNK         0.5041 
     34 O         -69.5673   26.0568  -76.7124 O.2       8 UNK        -0.5577 
     35 CA        -71.2954   24.5314  -76.0575 C.3       7 UNK         0.0284 
     36 CB        -70.5501   23.1896  -75.9641 C.3       7 UNK        -0.1958 
     37 N         -72.4714   24.4899  -75.1754 N.am      7 UNK        -0.4454 
     38 C         -73.3974   25.4517  -75.0576 C.2       7 UNK         0.5089 
     39 O         -73.3126   26.5599  -75.5914 O.2       7 UNK        -0.5125 
     40 CA        -74.5883   25.1407  -74.1374 C.3       6 UNK         0.0408 
     41 CB        -74.4092   25.8304  -72.7762 C.3       6 UNK        -0.1791 
     42 N         -75.8509   25.5763  -74.7316 N.am      6 UNK        -0.4762 
     43 C         -76.4203   25.0188  -75.8094 C.2       6 UNK         0.5007 
     44 O         -75.9531   24.0473  -76.4112 O.2       6 UNK        -0.5032 
     45 CA        -77.7384   25.6590  -76.2947 C.3       5 UNK         0.0783 
     46 C46       -77.5566   26.6800  -77.4522 C.3       11 UNK        -0.0857 
     47 S47       -76.2390   27.9341  -77.2733 S.3       11 UNK        -0.2512 
     48 C48       -77.1055   29.2983  -76.4389 C.3       11 UNK         0.0225 
     49 N         -78.7141   24.6455  -76.6962 N.am      5 UNK        -0.4615 
     50 C         -79.2554   23.6986  -75.9223 C.2       4 UNK         0.5053 
     51 O         -78.9793   23.5243  -74.7352 O.2       4 UNK        -0.5105 
     52 CA        -80.3565   22.8615  -76.5927 C.3       4 UNK         0.0263 
     53 CB        -80.7605   21.6210  -75.7747 C.3       4 UNK        -0.1981 
     54 N         -81.5266   23.7156  -76.7990 N.am      4 UNK        -0.4224 
     55 C         -81.6968   24.5230  -77.8570 C.2       3 UNK         0.4895 
     56 O         -80.9449   24.5279  -78.8331 O.2       3 UNK        -0.5091 
     57 CA        -82.8657   25.5232  -77.8139 C.3       3 UNK         0.0250 
     58 CB        -84.0977   24.9412  -78.5252 C.3       3 UNK        -0.1996 
     59 N         -83.2391   25.9357  -76.4587 N.am      3 UNK        -0.4254 
     60 C         -82.4690   26.6450  -75.6202 C.2       2 UNK         0.5004 
     61 O         -81.3496   27.0725  -75.9068 O.2       2 UNK        -0.5226 
     62 CA        -83.0309   26.9085  -74.2083 C.3       2 UNK         0.0269 
     63 CB        -84.5483   26.6438  -74.0711 C.3       2 UNK        -0.1926 
     64 N         -82.2943   26.1685  -73.1752 N.am      2 UNK        -0.4687 
     65 C         -82.0582   24.8477  -73.1352 C.2       1 UNK         0.5165 
     66 O         -82.4667   24.0616  -73.9952 O.2       1 UNK        -0.5079 
     67 H67       -78.8366   20.5111  -71.5318 H         1 UNK         0.0900 
     68 H68       -80.1504   20.0664  -72.6263 H         1 UNK         0.0900 
     69 H69       -78.9523   21.2664  -73.1203 H         1 UNK         0.0900 
     70 H70       -79.9902   23.2538  -73.2135 H         1 UNK         0.2959 
     71 H71       -82.0580   23.9707  -71.2380 H         1 UNK         0.1079 
     72 H72       -81.0071   26.1841  -70.8120 H         1 UNK         0.0837 
     73 H73       -80.0441   24.8722  -70.2327 H         1 UNK         0.0837 
     74 H74       -80.1547   27.9304  -72.6221 H         1 UNK         0.0685 
     75 H75       -79.2908   28.0993  -71.1073 H         1 UNK         0.0685 
     76 H76       -79.0243   28.2702  -74.7789 H         1 UNK         0.1434 
     77 H77       -75.0784   29.9527  -74.7537 H         1 UNK         0.1329 
     78 H78       -76.8715   28.6414  -71.0870 H         1 UNK         0.1335 
     79 H79       -73.7245   29.4195  -72.6063 H         1 UNK         0.0680 
     80 H80       -74.5767   29.3742  -71.0830 H         1 UNK         0.0680 
     81 H81       -72.2701   31.0423  -71.2942 H         1 UNK         0.1032 
     82 H82       -72.6313   32.7308  -71.0661 H         1 UNK         0.1032 
     83 H83       -72.6123   33.0715  -73.5639 H         1 UNK         0.0461 
     84 H84       -68.6485   32.5827  -73.2980 H         1 UNK         0.3453 
     85 H85       -69.6699   31.3704  -74.0316 H         1 UNK         0.3453 
     86 H86       -72.0946   30.1923  -73.6467 H         1 UNK         0.2984 
     87 H87       -73.1030   29.5523  -76.2853 H         1 UNK         0.0554 
     88 H88       -72.0400   30.7318  -78.1764 H         1 UNK         0.0847 
     89 H89       -71.4677   29.0740  -78.1181 H         1 UNK         0.0847 
     90 H90       -70.4369   30.3842  -77.5439 H         1 UNK         0.0847 
     91 H91       -71.9472   27.9225  -75.3589 H         1 UNK         0.3141 
     92 H92       -68.5961   27.3650  -74.4983 H         1 UNK         0.0743 
     93 H93       -70.7744   27.8256  -72.3818 H         1 UNK         0.0784 
     94 H94       -69.3172   26.8527  -72.1747 H         1 UNK         0.0784 
     95 H95       -69.1906   28.5886  -72.3963 H         1 UNK         0.0784 
     96 H96       -71.0121   25.9119  -73.9224 H         1 UNK         0.3213 
     97 H97       -71.6661   24.6449  -77.0785 H         1 UNK         0.0855 
     98 H98       -70.1840   23.0004  -74.9541 H         1 UNK         0.0814 
     99 H99       -69.6866   23.1745  -76.6310 H         1 UNK         0.0814 
    100 H100      -71.1913   22.3564  -76.2526 H         1 UNK         0.0814 
    101 H101      -72.6215   23.6231  -74.6784 H         1 UNK         0.3105 
    102 H102      -74.6476   24.0624  -73.9744 H         1 UNK         0.0547 
    103 H103      -75.2556   25.6369  -72.1165 H         1 UNK         0.0837 
    104 H104      -74.3100   26.9103  -72.8843 H         1 UNK         0.0837 
    105 H105      -73.5136   25.4702  -72.2687 H         1 UNK         0.0837 
    106 H106      -76.2671   26.4076  -74.3347 H         1 UNK         0.3020 
    107 H107      -78.1830   26.1728  -75.4427 H         1 UNK         0.1245 
    108 H108      -78.5032   27.1893  -77.6413 H         1 UNK         0.0781 
    109 H109      -77.3314   26.1396  -78.3737 H         1 UNK         0.0781 
    110 H110      -78.1347   29.3732  -76.7931 H         1 UNK         0.0836 
    111 H111      -76.6233   30.2380  -76.7128 H         1 UNK         0.0836 
    112 H112      -79.0490   24.7075  -77.6490 H         1 UNK         0.3022 
    113 H113      -79.9741   22.5104  -77.5537 H         1 UNK         0.0747 
    114 H114      -81.4945   21.0195  -76.3108 H         1 UNK         0.0793 
    115 H115      -79.8970   20.9831  -75.5825 H         1 UNK         0.0793 
    116 H116      -81.1927   21.8871  -74.8110 H         1 UNK         0.0793 
    117 H117      -82.1316   23.8347  -75.9917 H         1 UNK         0.3047 
    118 H118      -82.5475   26.4168  -78.3552 H         1 UNK         0.0822 
    119 H119      -84.9061   25.6705  -78.5812 H         1 UNK         0.0807 
    120 H120      -84.4778   24.0548  -78.0157 H         1 UNK         0.0807 
    121 H121      -83.8557   24.6500  -79.5485 H         1 UNK         0.0807 
    122 H122      -84.1329   25.6119  -76.1181 H         1 UNK         0.2946 
    123 H123      -82.8639   27.9699  -74.0164 H         1 UNK         0.1144 
    124 H124      -84.7999   25.5891  -74.1885 H         1 UNK         0.0793 
    125 H125      -85.1176   27.2091  -74.8104 H         1 UNK         0.0793 
    126 H126      -84.9086   26.9557  -73.0906 H         1 UNK         0.0793 
    127 H127      -81.9031   26.7345  -72.4370 H         1 UNK         0.2896 
@<TRIPOS>BOND
     1    1    2 1    
     2    1   67 1    
     3    1   68 1    
     4    1   69 1    
     5    2    3 2    
     6    2    4 am   BACKBONE|DICT|INTERRES
     7    4    5 1    
     8    4   70 1    
     9    5    6 1    
    10    5   65 1    
    11    5   71 1    
    12    6    7 1    
    13    6   72 1    
    14    6   73 1    
    15    7    8 1    
    16    8    9 1    
    17    8   74 1    
    18    8   75 1    
    19    9   10 ar   
    20    9   14 ar   
    21   10   11 ar   
    22   10   76 1    
    23   11   12 ar   
    24   11   48 1    
    25   12   13 ar   
    26   12   77 1    
    27   13   14 ar   
    28   13   15 1    
    29   14   78 1    
    30   15   16 1    
    31   15   79 1    
    32   15   80 1    
    33   16   17 1    
    34   17   18 1    
    35   17   81 1    
    36   17   82 1    
    37   18   19 1    
    38   18   22 1    
    39   18   83 1    
    40   19   20 am   BACKBONE|DICT|INTERRES
    41   19   21 2    
    42   20   84 1    
    43   20   85 1    
    44   22   23 am   BACKBONE|DICT|INTERRES
    45   22   86 1    
    46   23   24 2    
    47   23   25 1    
    48   25   26 1    
    49   25   27 1    
    50   25   87 1    
    51   26   88 1    
    52   26   89 1    
    53   26   90 1    
    54   27   28 am   BACKBONE|DICT|INTERRES
    55   27   91 1    
    56   28   29 2    
    57   28   30 1    
    58   30   31 1    
    59   30   32 1    
    60   30   92 1    
    61   31   93 1    
    62   31   94 1    
    63   31   95 1    
    64   32   33 am   BACKBONE|DICT|INTERRES
    65   32   96 1    
    66   33   34 2    
    67   33   35 1    
    68   35   36 1    
    69   35   37 1    
    70   35   97 1    
    71   36   98 1    
    72   36   99 1    
    73   36  100 1    
    74   37   38 am   BACKBONE|DICT|INTERRES
    75   37  101 1    
    76   38   39 2    
    77   38   40 1    
    78   40   41 1    
    79   40   42 1    
    80   40  102 1    
    81   41  103 1    
    82   41  104 1    
    83   41  105 1    
    84   42   43 am   BACKBONE|DICT|INTERRES
    85   42  106 1    
    86   43   44 2    
    87   43   45 1    
    88   45   46 1    
    89   45   49 1    
    90   45  107 1    
    91   46   47 1    
    92   46  108 1    
    93   46  109 1    
    94   47   48 1    
    95   48  110 1    
    96   48  111 1    
    97   49   50 am   BACKBONE|DICT|INTERRES
    98   49  112 1    
    99   50   51 2    
   100   50   52 1    
   101   52   53 1    
   102   52   54 1    
   103   52  113 1    
   104   53  114 1    
   105   53  115 1    
   106   53  116 1    
   107   54   55 am   BACKBONE|DICT|INTERRES
   108   54  117 1    
   109   55   56 2    
   110   55   57 1    
   111   57   58 1    
   112   57   59 1    
   113   57  118 1    
   114   58  119 1    
   115   58  120 1    
   116   58  121 1    
   117   59   60 am   BACKBONE|DICT|INTERRES
   118   59  122 1    
   119   60   61 2    
   120   60   62 1    
   121   62   63 1    
   122   62   64 1    
   123   62  123 1    
   124   63  124 1    
   125   63  125 1    
   126   63  126 1    
   127   64   65 am   BACKBONE|DICT|INTERRES
   128   64  127 1    
   129   65   66 2    
@<TRIPOS>SUBSTRUCTURE
     1 UNK         1 GROUP             0       ****    0 ROOT    
