@<TRIPOS>MOLECULE
3R135
127   129    1
SMALL
USER_CHARGES


@<TRIPOS>ATOM
      1 CA        -83.1508   31.4737  -75.0791 C.3       0 UNK        -0.1998 
      2 C         -81.8495   30.7319  -74.8121 C.2       0 UNK         0.4909 
      3 O         -80.8098   31.1046  -75.3572 O.2       0 UNK        -0.5240 
      4 N         -81.8977   29.6920  -73.9702 N.am      1 UNK        -0.4739 
      5 CA        -80.7557   28.8318  -73.6386 C.3       1 UNK         0.0864 
      6 C6        -81.0049   28.0323  -72.3354 C.3       11 UNK        -0.0881 
      7 S7        -80.9862   29.1581  -70.8946 S.3       11 UNK        -0.2682 
      8 C8        -79.5058   28.6427  -69.9520 C.3       11 UNK         0.0289 
      9 C9        -78.2755   28.3661  -70.8120 C.ar      11 UNK        -0.0687 
     10 C10       -77.5924   27.1551  -70.6670 C.ar      11 UNK        -0.0823 
     11 C11       -76.4835   26.8564  -71.4658 C.ar      11 UNK        -0.0830 
     12 C12       -76.0634   27.7858  -72.4209 C.ar      11 UNK        -0.1021 
     13 C13       -76.7181   29.0137  -72.5595 C.ar      11 UNK        -0.0753 
     14 C14       -77.8145   29.3036  -71.7419 C.ar      11 UNK        -0.0933 
     15 C15       -76.2463   30.0255  -73.5951 C.3       11 UNK         0.0166 
     16 S16       -75.3295   31.4034  -72.8371 S.3       11 UNK        -0.2615 
     17 C17       -73.8074   30.5820  -72.2481 C.3       11 UNK        -0.0865 
     18 CA        -72.5256   31.1423  -72.9172 C.3       10 UNK         0.0862 
     19 C         -71.2480   30.6270  -72.1925 C.2       10 UNK         0.5551 
     20 N         -70.3463   29.9112  -72.8546 N.am      10 UNK        -0.7319 
     21 O         -71.0648   30.8953  -71.0076 O.2       10 UNK        -0.5018 
     22 N         -72.5142   30.9020  -74.3706 N.am      10 UNK        -0.4509 
     23 C         -71.9543   31.7230  -75.2709 C.2       10 UNK         0.4899 
     24 O         -71.4525   32.8090  -74.9772 O.2       10 UNK        -0.4839 
     25 CA        -71.9100   31.2730  -76.7467 C.3       9 UNK         0.0222 
     26 CB        -70.4576   31.0247  -77.1894 C.3       9 UNK        -0.1966 
     27 N         -72.6981   30.0720  -77.0289 N.am      9 UNK        -0.4218 
     28 C         -74.0338   30.0264  -77.1141 C.2       9 UNK         0.5020 
     29 O         -74.7579   31.0202  -77.0524 O.2       9 UNK        -0.5274 
     30 CA        -74.6807   28.6372  -77.2870 C.3       8 UNK         0.0270 
     31 CB        -75.0596   28.4132  -78.7604 C.3       8 UNK        -0.1976 
     32 N         -73.8838   27.4913  -76.8222 N.am      8 UNK        -0.4313 
     33 C         -73.3700   27.3266  -75.5948 C.2       8 UNK         0.5041 
     34 O         -73.4209   28.1834  -74.7135 O.2       8 UNK        -0.5577 
     35 CA        -72.7121   25.9719  -75.3118 C.3       7 UNK         0.0284 
     36 CB        -72.1982   25.8396  -73.8643 C.3       7 UNK        -0.1958 
     37 N         -73.6646   24.9018  -75.6110 N.am      7 UNK        -0.4454 
     38 C         -73.3356   23.6990  -76.0956 C.2       7 UNK         0.5089 
     39 O         -72.1756   23.3620  -76.3405 O.2       7 UNK        -0.5125 
     40 CA        -74.4947   22.7189  -76.3792 C.3       6 UNK         0.0408 
     41 CB        -74.0217   21.2519  -76.4524 C.3       6 UNK        -0.1791 
     42 N         -75.6469   22.8278  -75.4727 N.am      6 UNK        -0.4762 
     43 C         -75.6509   22.6831  -74.1347 C.2       6 UNK         0.5007 
     44 O         -74.6294   22.5794  -73.4556 O.2       6 UNK        -0.5032 
     45 CA        -77.0308   22.5918  -73.4402 C.3       5 UNK         0.0783 
     46 C46       -77.4465   23.9255  -72.7708 C.3       11 UNK        -0.0857 
     47 S47       -76.7680   24.0904  -71.0891 S.3       11 UNK        -0.2512 
     48 C48       -75.7041   25.5575  -71.2751 C.3       11 UNK         0.0225 
     49 N         -78.0760   22.1033  -74.3454 N.am      5 UNK        -0.4615 
     50 C         -78.1588   20.8407  -74.7924 C.2       4 UNK         0.5053 
     51 O         -77.4130   19.9380  -74.4117 O.2       4 UNK        -0.5105 
     52 CA        -79.2361   20.5144  -75.8456 C.3       4 UNK         0.0263 
     53 CB        -80.3894   19.7240  -75.2057 C.3       4 UNK        -0.1981 
     54 N         -79.7877   21.6818  -76.5395 N.am      4 UNK        -0.4224 
     55 C         -79.0996   22.5282  -77.3178 C.2       3 UNK         0.4895 
     56 O         -77.8938   22.4201  -77.5493 O.2       3 UNK        -0.5091 
     57 CA        -79.8654   23.7322  -77.8991 C.3       3 UNK         0.0250 
     58 CB        -81.3872   23.7162  -77.6232 C.3       3 UNK        -0.1996 
     59 N         -79.2851   25.0035  -77.4517 N.am      3 UNK        -0.4254 
     60 C         -79.0844   25.4034  -76.1857 C.2       2 UNK         0.5004 
     61 O         -79.3498   24.7134  -75.1984 O.2       2 UNK        -0.5226 
     62 CA        -78.4530   26.7967  -75.9784 C.3       2 UNK         0.0269 
     63 CB        -78.3969   27.6600  -77.2607 C.3       2 UNK        -0.1926 
     64 N         -79.0939   27.5545  -74.8963 N.am      2 UNK        -0.4687 
     65 C         -80.3856   27.9123  -74.8196 C.2       1 UNK         0.5165 
     66 O         -81.2540   27.5676  -75.6266 O.2       1 UNK        -0.5079 
     67 H67       -83.3957   31.4308  -76.1400 H         1 UNK         0.0900 
     68 H68       -83.0513   32.5206  -74.7938 H         1 UNK         0.0900 
     69 H69       -83.9847   31.0481  -74.5210 H         1 UNK         0.0900 
     70 H70       -82.7807   29.4224  -73.5615 H         1 UNK         0.2959 
     71 H71       -79.9000   29.4907  -73.4842 H         1 UNK         0.1079 
     72 H72       -80.2602   27.2464  -72.1980 H         1 UNK         0.0837 
     73 H73       -81.9680   27.5203  -72.3740 H         1 UNK         0.0837 
     74 H74       -79.2619   29.4216  -69.2285 H         1 UNK         0.0685 
     75 H75       -79.7710   27.7584  -69.3704 H         1 UNK         0.0685 
     76 H76       -77.9249   26.4393  -69.9278 H         1 UNK         0.1434 
     77 H77       -75.2081   27.5629  -73.0419 H         1 UNK         0.1329 
     78 H78       -78.3195   30.2550  -71.8397 H         1 UNK         0.1335 
     79 H79       -75.6224   29.5500  -74.3513 H         1 UNK         0.0680 
     80 H80       -77.1099   30.4287  -74.1262 H         1 UNK         0.0680 
     81 H81       -73.8683   29.5051  -72.4052 H         1 UNK         0.1032 
     82 H82       -73.7704   30.7223  -71.1661 H         1 UNK         0.1032 
     83 H83       -72.5329   32.2212  -72.7506 H         1 UNK         0.0461 
     84 H84       -69.5202   29.5891  -72.3759 H         1 UNK         0.3453 
     85 H85       -70.4936   29.6835  -73.8239 H         1 UNK         0.3453 
     86 H86       -72.8917   30.0046  -74.6657 H         1 UNK         0.2984 
     87 H87       -72.3103   32.0937  -77.3456 H         1 UNK         0.0554 
     88 H88       -70.4019   30.7744  -78.2491 H         1 UNK         0.0847 
     89 H89       -69.9952   30.2129  -76.6267 H         1 UNK         0.0847 
     90 H90       -69.8442   31.9143  -77.0387 H         1 UNK         0.0847 
     91 H91       -72.1935   29.2001  -77.0895 H         1 UNK         0.3141 
     92 H92       -75.5956   28.6424  -76.6929 H         1 UNK         0.0743 
     93 H93       -75.7307   29.1973  -79.1144 H         1 UNK         0.0784 
     94 H94       -74.1808   28.4210  -79.4066 H         1 UNK         0.0784 
     95 H95       -75.5705   27.4617  -78.9056 H         1 UNK         0.0784 
     96 H96       -73.7701   26.7342  -77.4816 H         1 UNK         0.3213 
     97 H97       -71.8546   25.9001  -75.9845 H         1 UNK         0.0855 
     98 H98       -71.4624   26.6128  -73.6390 H         1 UNK         0.0814 
     99 H99       -71.7168   24.8756  -73.6997 H         1 UNK         0.0814 
    100 H100      -73.0050   25.9390  -73.1394 H         1 UNK         0.0814 
    101 H101      -74.6402   25.1047  -75.4463 H         1 UNK         0.3105 
    102 H102      -74.8717   22.9867  -77.3673 H         1 UNK         0.0547 
    103 H103      -73.2666   21.1182  -77.2280 H         1 UNK         0.0837 
    104 H104      -73.5828   20.9231  -75.5097 H         1 UNK         0.0837 
    105 H105      -74.8476   20.5810  -76.6894 H         1 UNK         0.0837 
    106 H106      -76.5458   22.8694  -75.9416 H         1 UNK         0.3020 
    107 H107      -76.9281   21.8361  -72.6573 H         1 UNK         0.1245 
    108 H108      -78.5313   23.9698  -72.6592 H         1 UNK         0.0781 
    109 H109      -77.1845   24.7875  -73.3872 H         1 UNK         0.0781 
    110 H110      -75.0227   25.3844  -72.1085 H         1 UNK         0.0836 
    111 H111      -75.0831   25.6545  -70.3839 H         1 UNK         0.0836 
    112 H112      -78.7203   22.8026  -74.7013 H         1 UNK         0.3022 
    113 H113      -78.7627   19.8804  -76.5982 H         1 UNK         0.0747 
    114 H114      -81.1145   19.4019  -75.9534 H         1 UNK         0.0793 
    115 H115      -80.0200   18.8253  -74.7093 H         1 UNK         0.0793 
    116 H116      -80.9170   20.3158  -74.4566 H         1 UNK         0.0793 
    117 H117      -80.7663   21.8761  -76.3833 H         1 UNK         0.3047 
    118 H118      -79.7239   23.6859  -78.9799 H         1 UNK         0.0822 
    119 H119      -81.8776   24.5574  -78.1134 H         1 UNK         0.0807 
    120 H120      -81.6165   23.7852  -76.5589 H         1 UNK         0.0807 
    121 H121      -81.8538   22.8100  -78.0122 H         1 UNK         0.0807 
    122 H122      -79.0038   25.6328  -78.1900 H         1 UNK         0.2946 
    123 H123      -77.4268   26.6126  -75.6567 H         1 UNK         0.1144 
    124 H124      -79.3884   27.8261  -77.6845 H         1 UNK         0.0793 
    125 H125      -77.9664   28.6404  -77.0565 H         1 UNK         0.0793 
    126 H126      -77.7798   27.1961  -78.0299 H         1 UNK         0.0793 
    127 H127      -78.4788   27.8346  -74.1444 H         1 UNK         0.2896 
@<TRIPOS>BOND
     1    1    2 1    
     2    1   67 1    
     3    1   68 1    
     4    1   69 1    
     5    2    3 2    
     6    2    4 am   BACKBONE|DICT|INTERRES
     7    4    5 1    
     8    4   70 1    
     9    5    6 1    
    10    5   65 1    
    11    5   71 1    
    12    6    7 1    
    13    6   72 1    
    14    6   73 1    
    15    7    8 1    
    16    8    9 1    
    17    8   74 1    
    18    8   75 1    
    19    9   10 ar   
    20    9   14 ar   
    21   10   11 ar   
    22   10   76 1    
    23   11   12 ar   
    24   11   48 1    
    25   12   13 ar   
    26   12   77 1    
    27   13   14 ar   
    28   13   15 1    
    29   14   78 1    
    30   15   16 1    
    31   15   79 1    
    32   15   80 1    
    33   16   17 1    
    34   17   18 1    
    35   17   81 1    
    36   17   82 1    
    37   18   19 1    
    38   18   22 1    
    39   18   83 1    
    40   19   20 am   BACKBONE|DICT|INTERRES
    41   19   21 2    
    42   20   84 1    
    43   20   85 1    
    44   22   23 am   BACKBONE|DICT|INTERRES
    45   22   86 1    
    46   23   24 2    
    47   23   25 1    
    48   25   26 1    
    49   25   27 1    
    50   25   87 1    
    51   26   88 1    
    52   26   89 1    
    53   26   90 1    
    54   27   28 am   BACKBONE|DICT|INTERRES
    55   27   91 1    
    56   28   29 2    
    57   28   30 1    
    58   30   31 1    
    59   30   32 1    
    60   30   92 1    
    61   31   93 1    
    62   31   94 1    
    63   31   95 1    
    64   32   33 am   BACKBONE|DICT|INTERRES
    65   32   96 1    
    66   33   34 2    
    67   33   35 1    
    68   35   36 1    
    69   35   37 1    
    70   35   97 1    
    71   36   98 1    
    72   36   99 1    
    73   36  100 1    
    74   37   38 am   BACKBONE|DICT|INTERRES
    75   37  101 1    
    76   38   39 2    
    77   38   40 1    
    78   40   41 1    
    79   40   42 1    
    80   40  102 1    
    81   41  103 1    
    82   41  104 1    
    83   41  105 1    
    84   42   43 am   BACKBONE|DICT|INTERRES
    85   42  106 1    
    86   43   44 2    
    87   43   45 1    
    88   45   46 1    
    89   45   49 1    
    90   45  107 1    
    91   46   47 1    
    92   46  108 1    
    93   46  109 1    
    94   47   48 1    
    95   48  110 1    
    96   48  111 1    
    97   49   50 am   BACKBONE|DICT|INTERRES
    98   49  112 1    
    99   50   51 2    
   100   50   52 1    
   101   52   53 1    
   102   52   54 1    
   103   52  113 1    
   104   53  114 1    
   105   53  115 1    
   106   53  116 1    
   107   54   55 am   BACKBONE|DICT|INTERRES
   108   54  117 1    
   109   55   56 2    
   110   55   57 1    
   111   57   58 1    
   112   57   59 1    
   113   57  118 1    
   114   58  119 1    
   115   58  120 1    
   116   58  121 1    
   117   59   60 am   BACKBONE|DICT|INTERRES
   118   59  122 1    
   119   60   61 2    
   120   60   62 1    
   121   62   63 1    
   122   62   64 1    
   123   62  123 1    
   124   63  124 1    
   125   63  125 1    
   126   63  126 1    
   127   64   65 am   BACKBONE|DICT|INTERRES
   128   64  127 1    
   129   65   66 2    
@<TRIPOS>SUBSTRUCTURE
     1 UNK         1 GROUP             0       ****    0 ROOT    
