@<TRIPOS>MOLECULE
3R135
127   129    1
SMALL
USER_CHARGES


@<TRIPOS>ATOM
      1 CA        -86.0295   25.5192  -72.8376 C.3       0 UNK        -0.1998 
      2 C         -85.2715   26.7507  -73.3099 C.2       0 UNK         0.4909 
      3 O         -85.7568   27.4696  -74.1839 O.2       0 UNK        -0.5240 
      4 N         -84.0863   27.0006  -72.7358 N.am      1 UNK        -0.4739 
      5 CA        -83.2027   28.1212  -73.0872 C.3       1 UNK         0.0864 
      6 C6        -82.1126   28.3239  -72.0053 C.3       11 UNK        -0.0881 
      7 S7        -81.5367   30.0501  -71.8872 S.3       11 UNK        -0.2682 
      8 C8        -80.2556   29.9087  -70.5981 C.3       11 UNK         0.0289 
      9 C9        -79.0194   29.1965  -71.1247 C.ar      11 UNK        -0.0687 
     10 C10       -78.8588   27.8211  -70.9284 C.ar      11 UNK        -0.0823 
     11 C11       -77.7676   27.1505  -71.4859 C.ar      11 UNK        -0.0830 
     12 C12       -76.8142   27.8717  -72.2082 C.ar      11 UNK        -0.1021 
     13 C13       -76.9492   29.2502  -72.3896 C.ar      11 UNK        -0.0753 
     14 C14       -78.0538   29.9089  -71.8427 C.ar      11 UNK        -0.0933 
     15 C15       -75.9333   30.0135  -73.2243 C.3       11 UNK         0.0166 
     16 S16       -74.4446   30.4086  -72.2586 S.3       11 UNK        -0.2615 
     17 C17       -73.5728   31.5366  -73.4044 C.3       11 UNK        -0.0865 
     18 CA        -72.3744   30.8887  -74.1540 C.3       10 UNK         0.0862 
     19 C         -71.1475   30.5865  -73.2453 C.2       10 UNK         0.5551 
     20 N         -70.4240   29.4919  -73.4525 N.am      10 UNK        -0.7319 
     21 O         -70.8263   31.3677  -72.3531 O.2       10 UNK        -0.5018 
     22 N         -72.7845   29.7523  -74.9927 N.am      10 UNK        -0.4509 
     23 C         -73.3659   29.8499  -76.1930 C.2       10 UNK         0.4899 
     24 O         -73.6236   30.9193  -76.7480 O.2       10 UNK        -0.4839 
     25 CA        -73.7189   28.5137  -76.8730 C.3       9 UNK         0.0222 
     26 CB        -74.3250   28.6832  -78.2824 C.3       9 UNK        -0.1966 
     27 N         -72.5926   27.5710  -76.8939 N.am      9 UNK        -0.4218 
     28 C         -71.3951   27.7420  -77.4790 C.2       9 UNK         0.5020 
     29 O         -71.0747   28.7505  -78.1089 O.2       9 UNK        -0.5274 
     30 CA        -70.3619   26.6077  -77.3283 C.3       8 UNK         0.0270 
     31 CB        -69.1688   27.0689  -76.4734 C.3       8 UNK        -0.1976 
     32 N         -70.9141   25.3865  -76.7377 N.am      8 UNK        -0.4313 
     33 C         -71.6329   24.4603  -77.3807 C.2       8 UNK         0.5041 
     34 O         -71.8955   24.5119  -78.5822 O.2       8 UNK        -0.5577 
     35 CA        -72.1759   23.2948  -76.5347 C.3       7 UNK         0.0284 
     36 CB        -71.0648   22.2845  -76.1869 C.3       7 UNK        -0.1958 
     37 N         -72.9241   23.7193  -75.3399 N.am      7 UNK        -0.4454 
     38 C         -72.4802   24.3572  -74.2447 C.2       7 UNK         0.5089 
     39 O         -71.3010   24.6731  -74.0792 O.2       7 UNK        -0.5125 
     40 CA        -73.5094   24.7606  -73.1711 C.3       6 UNK         0.0408 
     41 CB        -73.4655   26.2790  -72.9226 C.3       6 UNK        -0.1791 
     42 N         -74.8818   24.3580  -73.5042 N.am      6 UNK        -0.4762 
     43 C         -75.4302   23.1816  -73.1569 C.2       6 UNK         0.5007 
     44 O         -74.8569   22.3516  -72.4507 O.2       6 UNK        -0.5032 
     45 CA        -76.8362   22.8431  -73.7073 C.3       5 UNK         0.0783 
     46 C46       -77.9486   23.1306  -72.6588 C.3       11 UNK        -0.0857 
     47 S47       -78.5952   24.8423  -72.6932 S.3       11 UNK        -0.2512 
     48 C48       -77.6484   25.6411  -71.3630 C.3       11 UNK         0.0225 
     49 N         -77.1326   23.4747  -74.9968 N.am      5 UNK        -0.4615 
     50 C         -76.4237   23.3748  -76.1266 C.2       4 UNK         0.5053 
     51 O         -75.4824   22.5967  -76.2702 O.2       4 UNK        -0.5105 
     52 CA        -76.7778   24.3505  -77.2657 C.3       4 UNK         0.0263 
     53 CB        -77.5658   23.6229  -78.3658 C.3       4 UNK        -0.1981 
     54 N         -77.5338   25.5380  -76.8453 N.am      4 UNK        -0.4224 
     55 C         -77.1701   26.4410  -75.9241 C.2       3 UNK         0.4895 
     56 O         -76.1132   26.3793  -75.2944 O.2       3 UNK        -0.5091 
     57 CA        -78.1714   27.5655  -75.6020 C.3       3 UNK         0.0250 
     58 CB        -77.9636   28.7812  -76.5240 C.3       3 UNK        -0.1996 
     59 N         -79.5808   27.1430  -75.5499 N.am      3 UNK        -0.4254 
     60 C         -80.3744   26.7312  -76.5492 C.2       2 UNK         0.5004 
     61 O         -80.0016   26.6336  -77.7188 O.2       2 UNK        -0.5226 
     62 CA        -81.8066   26.2944  -76.1919 C.3       2 UNK         0.0269 
     63 CB        -81.9351   24.7656  -76.3077 C.3       2 UNK        -0.1926 
     64 N         -82.2662   26.7013  -74.8594 N.am      2 UNK        -0.4687 
     65 C         -82.5906   27.9525  -74.4975 C.2       1 UNK         0.5165 
     66 O         -82.4591   28.9306  -75.2340 O.2       1 UNK        -0.5079 
     67 H67       -86.1913   24.8363  -73.6712 H         1 UNK         0.0900 
     68 H68       -85.4900   24.9811  -72.0584 H         1 UNK         0.0900 
     69 H69       -87.0019   25.8072  -72.4391 H         1 UNK         0.0900 
     70 H70       -83.7480   26.3786  -72.0151 H         1 UNK         0.2959 
     71 H71       -83.8296   29.0159  -73.1171 H         1 UNK         0.1079 
     72 H72       -81.2680   27.6551  -72.1752 H         1 UNK         0.0837 
     73 H73       -82.5066   28.0632  -71.0214 H         1 UNK         0.0837 
     74 H74       -79.9852   30.9092  -70.2571 H         1 UNK         0.0685 
     75 H75       -80.6620   29.3891  -69.7289 H         1 UNK         0.0685 
     76 H76       -79.6069   27.2634  -70.3816 H         1 UNK         0.1434 
     77 H77       -75.9894   27.3545  -72.6719 H         1 UNK         0.1329 
     78 H78       -78.1794   30.9715  -71.9997 H         1 UNK         0.1335 
     79 H79       -75.6527   29.4206  -74.0960 H         1 UNK         0.0680 
     80 H80       -76.3789   30.9336  -73.6054 H         1 UNK         0.0680 
     81 H81       -74.2811   31.9373  -74.1307 H         1 UNK         0.1032 
     82 H82       -73.2370   32.4051  -72.8350 H         1 UNK         0.1032 
     83 H83       -71.9884   31.6516  -74.8329 H         1 UNK         0.0461 
     84 H84       -70.6125   28.8804  -74.2271 H         1 UNK         0.3453 
     85 H85       -69.6294   29.3174  -72.8573 H         1 UNK         0.3453 
     86 H86       -72.6302   28.8405  -74.5910 H         1 UNK         0.2984 
     87 H87       -74.4840   28.0612  -76.2455 H         1 UNK         0.0554 
     88 H88       -74.6241   27.7225  -78.7018 H         1 UNK         0.0847 
     89 H89       -73.6219   29.1480  -78.9740 H         1 UNK         0.0847 
     90 H90       -75.2143   29.3136  -78.2540 H         1 UNK         0.0847 
     91 H91       -72.7461   26.6951  -76.4169 H         1 UNK         0.3141 
     92 H92       -69.9935   26.3743  -78.3296 H         1 UNK         0.0743 
     93 H93       -69.4646   27.2810  -75.4458 H         1 UNK         0.0784 
     94 H94       -68.3874   26.3092  -76.4451 H         1 UNK         0.0784 
     95 H95       -68.7194   27.9762  -76.8797 H         1 UNK         0.0784 
     96 H96       -70.7789   25.2462  -75.7370 H         1 UNK         0.3213 
     97 H97       -72.9001   22.7708  -77.1609 H         1 UNK         0.0855 
     98 H98       -70.2828   22.7249  -75.5678 H         1 UNK         0.0814 
     99 H99       -70.5856   21.9095  -77.0921 H         1 UNK         0.0814 
    100 H100      -71.4678   21.4233  -75.6540 H         1 UNK         0.0814 
    101 H101      -73.9130   23.4941  -75.3784 H         1 UNK         0.3105 
    102 H102      -73.1976   24.2717  -72.2460 H         1 UNK         0.0547 
    103 H103      -72.4457   26.6296  -72.7579 H         1 UNK         0.0837 
    104 H104      -73.8735   26.8424  -73.7619 H         1 UNK         0.0837 
    105 H105      -74.0262   26.5408  -72.0263 H         1 UNK         0.0837 
    106 H106      -75.4116   24.9949  -74.0957 H         1 UNK         0.3020 
    107 H107      -76.8239   21.7659  -73.8883 H         1 UNK         0.1245 
    108 H108      -77.6314   22.8701  -71.6467 H         1 UNK         0.0781 
    109 H109      -78.7973   22.4769  -72.8658 H         1 UNK         0.0781 
    110 H110      -76.6005   25.3439  -71.4146 H         1 UNK         0.0836 
    111 H111      -78.0206   25.3047  -70.3941 H         1 UNK         0.0836 
    112 H112      -77.8766   24.1567  -74.9689 H         1 UNK         0.3022 
    113 H113      -75.8347   24.7015  -77.6897 H         1 UNK         0.0747 
    114 H114      -77.7379   24.2711  -79.2254 H         1 UNK         0.0793 
    115 H115      -77.0214   22.7483  -78.7253 H         1 UNK         0.0793 
    116 H116      -78.5363   23.2792  -78.0053 H         1 UNK         0.0793 
    117 H117      -78.4173   25.7112  -77.3192 H         1 UNK         0.3047 
    118 H118      -77.9481   27.8942  -74.5909 H         1 UNK         0.0822 
    119 H119      -78.1258   28.5336  -77.5734 H         1 UNK         0.0807 
    120 H120      -76.9467   29.1645  -76.4343 H         1 UNK         0.0807 
    121 H121      -78.6394   29.5952  -76.2619 H         1 UNK         0.0807 
    122 H122      -79.9861   27.1365  -74.6244 H         1 UNK         0.2946 
    123 H123      -82.4683   26.7522  -76.9311 H         1 UNK         0.1144 
    124 H124      -82.9632   24.4401  -76.1472 H         1 UNK         0.0793 
    125 H125      -81.3015   24.2510  -75.5838 H         1 UNK         0.0793 
    126 H126      -81.6417   24.4205  -77.3003 H         1 UNK         0.0793 
    127 H127      -82.4234   25.9606  -74.1910 H         1 UNK         0.2896 
@<TRIPOS>BOND
     1    1    2 1    
     2    1   67 1    
     3    1   68 1    
     4    1   69 1    
     5    2    3 2    
     6    2    4 am   BACKBONE|DICT|INTERRES
     7    4    5 1    
     8    4   70 1    
     9    5    6 1    
    10    5   65 1    
    11    5   71 1    
    12    6    7 1    
    13    6   72 1    
    14    6   73 1    
    15    7    8 1    
    16    8    9 1    
    17    8   74 1    
    18    8   75 1    
    19    9   10 ar   
    20    9   14 ar   
    21   10   11 ar   
    22   10   76 1    
    23   11   12 ar   
    24   11   48 1    
    25   12   13 ar   
    26   12   77 1    
    27   13   14 ar   
    28   13   15 1    
    29   14   78 1    
    30   15   16 1    
    31   15   79 1    
    32   15   80 1    
    33   16   17 1    
    34   17   18 1    
    35   17   81 1    
    36   17   82 1    
    37   18   19 1    
    38   18   22 1    
    39   18   83 1    
    40   19   20 am   BACKBONE|DICT|INTERRES
    41   19   21 2    
    42   20   84 1    
    43   20   85 1    
    44   22   23 am   BACKBONE|DICT|INTERRES
    45   22   86 1    
    46   23   24 2    
    47   23   25 1    
    48   25   26 1    
    49   25   27 1    
    50   25   87 1    
    51   26   88 1    
    52   26   89 1    
    53   26   90 1    
    54   27   28 am   BACKBONE|DICT|INTERRES
    55   27   91 1    
    56   28   29 2    
    57   28   30 1    
    58   30   31 1    
    59   30   32 1    
    60   30   92 1    
    61   31   93 1    
    62   31   94 1    
    63   31   95 1    
    64   32   33 am   BACKBONE|DICT|INTERRES
    65   32   96 1    
    66   33   34 2    
    67   33   35 1    
    68   35   36 1    
    69   35   37 1    
    70   35   97 1    
    71   36   98 1    
    72   36   99 1    
    73   36  100 1    
    74   37   38 am   BACKBONE|DICT|INTERRES
    75   37  101 1    
    76   38   39 2    
    77   38   40 1    
    78   40   41 1    
    79   40   42 1    
    80   40  102 1    
    81   41  103 1    
    82   41  104 1    
    83   41  105 1    
    84   42   43 am   BACKBONE|DICT|INTERRES
    85   42  106 1    
    86   43   44 2    
    87   43   45 1    
    88   45   46 1    
    89   45   49 1    
    90   45  107 1    
    91   46   47 1    
    92   46  108 1    
    93   46  109 1    
    94   47   48 1    
    95   48  110 1    
    96   48  111 1    
    97   49   50 am   BACKBONE|DICT|INTERRES
    98   49  112 1    
    99   50   51 2    
   100   50   52 1    
   101   52   53 1    
   102   52   54 1    
   103   52  113 1    
   104   53  114 1    
   105   53  115 1    
   106   53  116 1    
   107   54   55 am   BACKBONE|DICT|INTERRES
   108   54  117 1    
   109   55   56 2    
   110   55   57 1    
   111   57   58 1    
   112   57   59 1    
   113   57  118 1    
   114   58  119 1    
   115   58  120 1    
   116   58  121 1    
   117   59   60 am   BACKBONE|DICT|INTERRES
   118   59  122 1    
   119   60   61 2    
   120   60   62 1    
   121   62   63 1    
   122   62   64 1    
   123   62  123 1    
   124   63  124 1    
   125   63  125 1    
   126   63  126 1    
   127   64   65 am   BACKBONE|DICT|INTERRES
   128   64  127 1    
   129   65   66 2    
@<TRIPOS>SUBSTRUCTURE
     1 UNK         1 GROUP             0       ****    0 ROOT    
