@<TRIPOS>MOLECULE
3R135
127   129    1
SMALL
USER_CHARGES


@<TRIPOS>ATOM
      1 CA        -81.5251   28.4723  -73.1346 C.3       0 UNK        -0.1998 
      2 C         -81.0146   28.5822  -74.5637 C.2       0 UNK         0.4909 
      3 O         -81.3257   29.5532  -75.2540 O.2       0 UNK        -0.5240 
      4 N         -80.2285   27.5985  -75.0095 N.am      1 UNK        -0.4739 
      5 CA        -79.6358   27.5213  -76.3424 C.3       1 UNK         0.0864 
      6 C6        -78.3324   28.3567  -76.4795 C.3       11 UNK        -0.0881 
      7 S7        -77.0389   27.9465  -75.2545 S.3       11 UNK        -0.2682 
      8 C8        -77.2710   29.2725  -74.0258 C.3       11 UNK         0.0289 
      9 C9        -76.8841   28.8116  -72.6284 C.ar      11 UNK        -0.0687 
     10 C10       -77.4868   27.6765  -72.0825 C.ar      11 UNK        -0.0823 
     11 C11       -77.1381   27.2264  -70.8085 C.ar      11 UNK        -0.0830 
     12 C12       -76.2038   27.9472  -70.0600 C.ar      11 UNK        -0.1021 
     13 C13       -75.6080   29.1042  -70.5765 C.ar      11 UNK        -0.0753 
     14 C14       -75.9513   29.5259  -71.8702 C.ar      11 UNK        -0.0933 
     15 C15       -74.6444   29.8817  -69.6761 C.3       11 UNK         0.0166 
     16 S16       -73.5905   31.1201  -70.5062 S.3       11 UNK        -0.2615 
     17 C17       -72.3222   30.0546  -71.2659 C.3       11 UNK        -0.0865 
     18 CA        -71.6509   30.7332  -72.4880 C.3       10 UNK         0.0862 
     19 C         -70.3741   29.9621  -72.9159 C.2       10 UNK         0.5551 
     20 N         -69.2540   30.2071  -72.2512 N.am      10 UNK        -0.7319 
     21 O         -70.3930   29.1260  -73.8187 O.2       10 UNK        -0.5018 
     22 N         -72.5705   30.8316  -73.6265 N.am      10 UNK        -0.4509 
     23 C         -73.0047   31.9604  -74.1978 C.2       10 UNK         0.4899 
     24 O         -72.8340   33.0854  -73.7254 O.2       10 UNK        -0.4839 
     25 CA        -73.7321   31.7881  -75.5501 C.3       9 UNK         0.0222 
     26 CB        -73.8207   33.0991  -76.3594 C.3       9 UNK        -0.1966 
     27 N         -73.1548   30.7068  -76.3631 N.am      9 UNK        -0.4218 
     28 C         -71.8857   30.5893  -76.7870 C.2       9 UNK         0.5020 
     29 O         -71.0346   31.4724  -76.6653 O.2       9 UNK        -0.5274 
     30 CA        -71.4985   29.2245  -77.3943 C.3       8 UNK         0.0270 
     31 CB        -69.9982   29.1276  -77.7307 C.3       8 UNK        -0.1976 
     32 N         -71.8533   28.1207  -76.4929 N.am      8 UNK        -0.4313 
     33 C         -73.0800   27.6004  -76.3725 C.2       8 UNK         0.5041 
     34 O         -74.0454   28.0088  -77.0230 O.2       8 UNK        -0.5577 
     35 CA        -73.2715   26.5142  -75.3020 C.3       7 UNK         0.0284 
     36 CB        -73.4105   27.1417  -73.9041 C.3       7 UNK        -0.1958 
     37 N         -74.4750   25.7311  -75.5633 N.am      7 UNK        -0.4454 
     38 C         -74.5772   24.7323  -76.4470 C.2       7 UNK         0.5089 
     39 O         -73.6409   24.3271  -77.1389 O.2       7 UNK        -0.5125 
     40 CA        -75.9667   24.0664  -76.5372 C.3       6 UNK         0.0408 
     41 CB        -75.9520   22.7383  -77.3237 C.3       6 UNK        -0.1791 
     42 N         -76.5923   23.8892  -75.2176 N.am      6 UNK        -0.4762 
     43 C         -76.0869   23.1938  -74.1834 C.2       6 UNK         0.5007 
     44 O         -75.0680   22.5049  -74.2506 O.2       6 UNK        -0.5032 
     45 CA        -76.7993   23.3232  -72.8219 C.3       5 UNK         0.0783 
     46 C46       -76.0872   24.4135  -71.9821 C.3       11 UNK        -0.0857 
     47 S47       -76.6719   24.5215  -70.2541 S.3       11 UNK        -0.2512 
     48 C48       -77.7856   25.9684  -70.2456 C.3       11 UNK         0.0225 
     49 N         -78.2404   23.5700  -72.9404 N.am      5 UNK        -0.4615 
     50 C         -79.1389   22.6889  -73.3989 C.2       4 UNK         0.5053 
     51 O         -78.8428   21.5721  -73.8248 O.2       4 UNK        -0.5105 
     52 CA        -80.6185   23.1023  -73.3570 C.3       4 UNK         0.0263 
     53 CB        -80.8943   24.4099  -72.5849 C.3       4 UNK        -0.1981 
     54 N         -81.0999   23.2499  -74.7267 N.am      4 UNK        -0.4224 
     55 C         -82.1129   22.5645  -75.2744 C.2       3 UNK         0.4895 
     56 O         -82.7669   21.7126  -74.6705 O.2       3 UNK        -0.5091 
     57 CA        -82.4969   22.8900  -76.7326 C.3       3 UNK         0.0250 
     58 CB        -83.8572   23.6069  -76.7805 C.3       3 UNK        -0.1996 
     59 N         -81.5094   23.7139  -77.4336 N.am      3 UNK        -0.4254 
     60 C         -80.3393   23.2701  -77.9114 C.2       2 UNK         0.5004 
     61 O         -79.9913   22.0899  -77.8837 O.2       2 UNK        -0.5226 
     62 CA        -79.3845   24.3243  -78.5022 C.3       2 UNK         0.0269 
     63 CB        -79.5187   24.3698  -80.0327 C.3       2 UNK        -0.1926 
     64 N         -79.5478   25.6834  -77.9635 N.am      2 UNK        -0.4687 
     65 C         -79.4318   26.0343  -76.6742 C.2       1 UNK         0.5165 
     66 O         -79.1957   25.2335  -75.7624 O.2       1 UNK        -0.5079 
     67 H67       -81.2788   29.3769  -72.5791 H         1 UNK         0.0900 
     68 H68       -81.0874   27.6257  -72.6068 H         1 UNK         0.0900 
     69 H69       -82.6083   28.3537  -73.1310 H         1 UNK         0.0900 
     70 H70       -80.0219   26.7925  -74.4365 H         1 UNK         0.2959 
     71 H71       -80.3657   27.9090  -77.0570 H         1 UNK         0.1079 
     72 H72       -77.9045   28.2288  -77.4755 H         1 UNK         0.0837 
     73 H73       -78.5698   29.4190  -76.4058 H         1 UNK         0.0837 
     74 H74       -76.6870   30.1412  -74.3318 H         1 UNK         0.0685 
     75 H75       -78.3131   29.5905  -74.0043 H         1 UNK         0.0685 
     76 H76       -78.2151   27.1322  -72.6663 H         1 UNK         0.1434 
     77 H77       -75.9465   27.6080  -69.0656 H         1 UNK         0.1329 
     78 H78       -75.5103   30.4185  -72.2896 H         1 UNK         0.1335 
     79 H79       -75.2369   30.3998  -68.9210 H         1 UNK         0.0680 
     80 H80       -74.0012   29.1853  -69.1356 H         1 UNK         0.0680 
     81 H81       -72.7678   29.1003  -71.5523 H         1 UNK         0.1032 
     82 H82       -71.5853   29.8271  -70.4930 H         1 UNK         0.1032 
     83 H83       -71.3276   31.7339  -72.1937 H         1 UNK         0.0461 
     84 H84       -68.4166   29.7079  -72.5071 H         1 UNK         0.3453 
     85 H85       -69.2244   30.8859  -71.5063 H         1 UNK         0.3453 
     86 H86       -72.6982   29.9692  -74.1339 H         1 UNK         0.2984 
     87 H87       -74.7501   31.4785  -75.3105 H         1 UNK         0.0554 
     88 H88       -74.3480   32.9494  -77.3014 H         1 UNK         0.0847 
     89 H89       -72.8335   33.5021  -76.5876 H         1 UNK         0.0847 
     90 H90       -74.3632   33.8654  -75.8042 H         1 UNK         0.0847 
     91 H91       -73.7592   29.9070  -76.5407 H         1 UNK         0.3141 
     92 H92       -72.0548   29.1176  -78.3281 H         1 UNK         0.0743 
     93 H93       -69.3783   29.2383  -76.8397 H         1 UNK         0.0784 
     94 H94       -69.7559   28.1700  -78.1920 H         1 UNK         0.0784 
     95 H95       -69.7032   29.9076  -78.4339 H         1 UNK         0.0784 
     96 H96       -71.1263   27.8143  -75.8589 H         1 UNK         0.3213 
     97 H97       -72.4061   25.8477  -75.3119 H         1 UNK         0.0855 
     98 H98       -72.4860   27.6287  -73.6005 H         1 UNK         0.0814 
     99 H99       -73.6318   26.3875  -73.1486 H         1 UNK         0.0814 
    100 H100      -74.2052   27.8883  -73.8694 H         1 UNK         0.0814 
    101 H101      -75.3222   26.0557  -75.1188 H         1 UNK         0.3105 
    102 H102      -76.5939   24.7741  -77.0785 H         1 UNK         0.0547 
    103 H103      -75.6497   22.9022  -78.3586 H         1 UNK         0.0837 
    104 H104      -75.2536   22.0204  -76.8928 H         1 UNK         0.0837 
    105 H105      -76.9372   22.2722  -77.3408 H         1 UNK         0.0837 
    106 H106      -77.4621   24.3953  -75.0803 H         1 UNK         0.3020 
    107 H107      -76.6737   22.3649  -72.3122 H         1 UNK         0.1245 
    108 H108      -76.1552   25.3822  -72.4753 H         1 UNK         0.0781 
    109 H109      -75.0179   24.1988  -71.9245 H         1 UNK         0.0781 
    110 H110      -78.1016   26.1576  -69.2187 H         1 UNK         0.0836 
    111 H111      -78.6950   25.7255  -70.7945 H         1 UNK         0.0836 
    112 H112      -78.5690   24.4600  -72.6038 H         1 UNK         0.3022 
    113 H113      -81.1483   22.2951  -72.8470 H         1 UNK         0.0747 
    114 H114      -81.9616   24.6321  -72.5698 H         1 UNK         0.0793 
    115 H115      -80.5755   24.3276  -71.5451 H         1 UNK         0.0793 
    116 H116      -80.3900   25.2661  -73.0311 H         1 UNK         0.0793 
    117 H117      -80.5640   23.8862  -75.3085 H         1 UNK         0.3047 
    118 H118      -82.5925   21.9392  -77.2616 H         1 UNK         0.0822 
    119 H119      -84.1755   23.7876  -77.8075 H         1 UNK         0.0807 
    120 H120      -83.8267   24.5666  -76.2629 H         1 UNK         0.0807 
    121 H121      -84.6336   23.0056  -76.3053 H         1 UNK         0.0807 
    122 H122      -81.7144   24.6990  -77.5160 H         1 UNK         0.2946 
    123 H123      -78.3743   23.9939  -78.2656 H         1 UNK         0.1144 
    124 H124      -79.3774   23.3790  -80.4675 H         1 UNK         0.0793 
    125 H125      -78.7696   25.0247  -80.4783 H         1 UNK         0.0793 
    126 H126      -80.5031   24.7236  -80.3418 H         1 UNK         0.0793 
    127 H127      -79.7448   26.4046  -78.6432 H         1 UNK         0.2896 
@<TRIPOS>BOND
     1    1    2 1    
     2    1   67 1    
     3    1   68 1    
     4    1   69 1    
     5    2    3 2    
     6    2    4 am   BACKBONE|DICT|INTERRES
     7    4    5 1    
     8    4   70 1    
     9    5    6 1    
    10    5   65 1    
    11    5   71 1    
    12    6    7 1    
    13    6   72 1    
    14    6   73 1    
    15    7    8 1    
    16    8    9 1    
    17    8   74 1    
    18    8   75 1    
    19    9   10 ar   
    20    9   14 ar   
    21   10   11 ar   
    22   10   76 1    
    23   11   12 ar   
    24   11   48 1    
    25   12   13 ar   
    26   12   77 1    
    27   13   14 ar   
    28   13   15 1    
    29   14   78 1    
    30   15   16 1    
    31   15   79 1    
    32   15   80 1    
    33   16   17 1    
    34   17   18 1    
    35   17   81 1    
    36   17   82 1    
    37   18   19 1    
    38   18   22 1    
    39   18   83 1    
    40   19   20 am   BACKBONE|DICT|INTERRES
    41   19   21 2    
    42   20   84 1    
    43   20   85 1    
    44   22   23 am   BACKBONE|DICT|INTERRES
    45   22   86 1    
    46   23   24 2    
    47   23   25 1    
    48   25   26 1    
    49   25   27 1    
    50   25   87 1    
    51   26   88 1    
    52   26   89 1    
    53   26   90 1    
    54   27   28 am   BACKBONE|DICT|INTERRES
    55   27   91 1    
    56   28   29 2    
    57   28   30 1    
    58   30   31 1    
    59   30   32 1    
    60   30   92 1    
    61   31   93 1    
    62   31   94 1    
    63   31   95 1    
    64   32   33 am   BACKBONE|DICT|INTERRES
    65   32   96 1    
    66   33   34 2    
    67   33   35 1    
    68   35   36 1    
    69   35   37 1    
    70   35   97 1    
    71   36   98 1    
    72   36   99 1    
    73   36  100 1    
    74   37   38 am   BACKBONE|DICT|INTERRES
    75   37  101 1    
    76   38   39 2    
    77   38   40 1    
    78   40   41 1    
    79   40   42 1    
    80   40  102 1    
    81   41  103 1    
    82   41  104 1    
    83   41  105 1    
    84   42   43 am   BACKBONE|DICT|INTERRES
    85   42  106 1    
    86   43   44 2    
    87   43   45 1    
    88   45   46 1    
    89   45   49 1    
    90   45  107 1    
    91   46   47 1    
    92   46  108 1    
    93   46  109 1    
    94   47   48 1    
    95   48  110 1    
    96   48  111 1    
    97   49   50 am   BACKBONE|DICT|INTERRES
    98   49  112 1    
    99   50   51 2    
   100   50   52 1    
   101   52   53 1    
   102   52   54 1    
   103   52  113 1    
   104   53  114 1    
   105   53  115 1    
   106   53  116 1    
   107   54   55 am   BACKBONE|DICT|INTERRES
   108   54  117 1    
   109   55   56 2    
   110   55   57 1    
   111   57   58 1    
   112   57   59 1    
   113   57  118 1    
   114   58  119 1    
   115   58  120 1    
   116   58  121 1    
   117   59   60 am   BACKBONE|DICT|INTERRES
   118   59  122 1    
   119   60   61 2    
   120   60   62 1    
   121   62   63 1    
   122   62   64 1    
   123   62  123 1    
   124   63  124 1    
   125   63  125 1    
   126   63  126 1    
   127   64   65 am   BACKBONE|DICT|INTERRES
   128   64  127 1    
   129   65   66 2    
@<TRIPOS>SUBSTRUCTURE
     1 UNK         1 GROUP             0       ****    0 ROOT    
