@<TRIPOS>MOLECULE
3R135
127   129    1
SMALL
USER_CHARGES


@<TRIPOS>ATOM
      1 CA        -81.6076   31.2437  -76.2400 C.3       0 UNK        -0.1998 
      2 C         -80.5819   30.1574  -75.9552 C.2       0 UNK         0.4909 
      3 O         -79.4990   30.1704  -76.5402 O.2       0 UNK        -0.5240 
      4 N         -80.9165   29.2119  -75.0662 N.am      1 UNK        -0.4739 
      5 CA        -80.0482   28.0965  -74.6622 C.3       1 UNK         0.0864 
      6 C6        -80.4660   27.5399  -73.2751 C.3       11 UNK        -0.0881 
      7 S7        -79.0544   26.7824  -72.4061 S.3       11 UNK        -0.2682 
      8 C8        -78.8421   27.8440  -70.9399 C.3       11 UNK         0.0289 
      9 C9        -77.4219   27.7344  -70.4005 C.ar      11 UNK        -0.0687 
     10 C10       -76.8847   26.4861  -70.0700 C.ar      11 UNK        -0.0823 
     11 C11       -75.5367   26.3632  -69.7215 C.ar      11 UNK        -0.0830 
     12 C12       -74.7430   27.5101  -69.6288 C.ar      11 UNK        -0.1021 
     13 C13       -75.2796   28.7689  -69.9109 C.ar      11 UNK        -0.0753 
     14 C14       -76.6211   28.8751  -70.2924 C.ar      11 UNK        -0.0933 
     15 C15       -74.3951   30.0048  -69.8322 C.3       11 UNK         0.0166 
     16 S16       -73.4989   30.2973  -71.3930 S.3       11 UNK        -0.2615 
     17 C17       -74.8412   30.8971  -72.4742 C.3       11 UNK        -0.0865 
     18 CA        -75.2295   29.8660  -73.5776 C.3       10 UNK         0.0862 
     19 C         -76.6333   30.1504  -74.1945 C.2       10 UNK         0.5551 
     20 N         -76.8422   29.9412  -75.4887 N.am      10 UNK        -0.7319 
     21 O         -77.5588   30.5331  -73.4833 O.2       10 UNK        -0.5018 
     22 N         -74.1607   29.6418  -74.5716 N.am      10 UNK        -0.4509 
     23 C         -73.6349   30.5676  -75.3905 C.2       10 UNK         0.4899 
     24 O         -73.9628   31.7547  -75.3784 O.2       10 UNK        -0.4839 
     25 CA        -72.6112   30.0962  -76.4426 C.3       9 UNK         0.0222 
     26 CB        -71.5384   31.1622  -76.7553 C.3       9 UNK        -0.1966 
     27 N         -72.0095   28.7914  -76.1496 N.am      9 UNK        -0.4218 
     28 C         -71.1533   28.4778  -75.1629 C.2       9 UNK         0.5020 
     29 O         -70.6924   29.2988  -74.3693 O.2       9 UNK        -0.5274 
     30 CA        -70.7512   26.9964  -75.0160 C.3       8 UNK         0.0270 
     31 CB        -70.9567   26.5160  -73.5676 C.3       8 UNK        -0.1976 
     32 N         -71.5147   26.1275  -75.9164 N.am      8 UNK        -0.4313 
     33 C         -71.1050   25.7176  -77.1257 C.2       8 UNK         0.5041 
     34 O         -69.9884   25.9580  -77.5855 O.2       8 UNK        -0.5577 
     35 CA        -72.1120   24.9265  -77.9854 C.3       7 UNK         0.0284 
     36 CB        -71.8341   23.4180  -77.8829 C.3       7 UNK        -0.1958 
     37 N         -73.5155   25.1806  -77.6429 N.am      7 UNK        -0.4454 
     38 C         -74.1465   26.3559  -77.7823 C.2       7 UNK         0.5089 
     39 O         -73.6235   27.3576  -78.2685 O.2       7 UNK        -0.5125 
     40 CA        -75.5696   26.4508  -77.2020 C.3       6 UNK         0.0408 
     41 CB        -76.6142   26.0902  -78.2670 C.3       6 UNK        -0.1791 
     42 N         -75.7646   25.6090  -76.0161 N.am      6 UNK        -0.4762 
     43 C         -75.0772   25.7180  -74.8717 C.2       6 UNK         0.5007 
     44 O         -74.2291   26.5967  -74.6942 O.2       6 UNK        -0.5032 
     45 CA        -75.3238   24.6519  -73.7762 C.3       5 UNK         0.0783 
     46 C46       -74.6884   25.0676  -72.4209 C.3       11 UNK        -0.0857 
     47 S47       -75.0815   23.9317  -71.0355 S.3       11 UNK        -0.2512 
     48 C48       -74.9090   24.9863  -69.5485 C.3       11 UNK         0.0225 
     49 N         -76.7288   24.2420  -73.6324 N.am      5 UNK        -0.4615 
     50 C         -77.3978   23.4115  -74.4420 C.2       4 UNK         0.5053 
     51 O         -76.9984   23.0853  -75.5603 O.2       4 UNK        -0.5105 
     52 CA        -78.6888   22.7798  -73.9026 C.3       4 UNK         0.0263 
     53 CB        -78.9062   22.9379  -72.3811 C.3       4 UNK        -0.1981 
     54 N         -79.8524   23.2653  -74.6424 N.am      4 UNK        -0.4224 
     55 C         -80.9550   22.5312  -74.8603 C.2       3 UNK         0.4895 
     56 O         -81.0697   21.3599  -74.4947 O.2       3 UNK        -0.5091 
     57 CA        -82.1556   23.1860  -75.5711 C.3       3 UNK         0.0250 
     58 CB        -83.3054   23.4140  -74.5746 C.3       3 UNK        -0.1996 
     59 N         -81.8437   24.4574  -76.2198 N.am      3 UNK        -0.4254 
     60 C         -81.2014   24.5935  -77.3869 C.2       2 UNK         0.5004 
     61 O         -80.8413   23.6478  -78.0878 O.2       2 UNK        -0.5226 
     62 CA        -80.8993   26.0341  -77.8411 C.3       2 UNK         0.0269 
     63 CB        -81.9410   26.5045  -78.8689 C.3       2 UNK        -0.1926 
     64 N         -80.8354   27.0088  -76.7429 N.am      2 UNK        -0.4687 
     65 C         -79.9543   26.9791  -75.7301 C.2       1 UNK         0.5165 
     66 O         -79.1133   26.0878  -75.6095 O.2       1 UNK        -0.5079 
     67 H67       -82.5195   31.1076  -75.6589 H         1 UNK         0.0900 
     68 H68       -81.8740   31.2401  -77.2965 H         1 UNK         0.0900 
     69 H69       -81.1932   32.2216  -75.9964 H         1 UNK         0.0900 
     70 H70       -81.8215   29.2521  -74.6182 H         1 UNK         0.2959 
     71 H71       -79.0396   28.4999  -74.5675 H         1 UNK         0.1079 
     72 H72       -81.2709   26.8073  -73.3607 H         1 UNK         0.0837 
     73 H73       -80.8620   28.3402  -72.6482 H         1 UNK         0.0837 
     74 H74       -79.0657   28.8779  -71.2086 H         1 UNK         0.0685 
     75 H75       -79.5558   27.5521  -70.1686 H         1 UNK         0.0685 
     76 H76       -77.4948   25.5983  -70.1656 H         1 UNK         0.1434 
     77 H77       -73.6958   27.4238  -69.3722 H         1 UNK         0.1329 
     78 H78       -77.0358   29.8425  -70.5382 H         1 UNK         0.1335 
     79 H79       -73.6661   29.8821  -69.0297 H         1 UNK         0.0680 
     80 H80       -74.9847   30.8849  -69.5705 H         1 UNK         0.0680 
     81 H81       -74.5341   31.8463  -72.9127 H         1 UNK         0.1032 
     82 H82       -75.6986   31.1503  -71.8514 H         1 UNK         0.1032 
     83 H83       -75.3568   28.9010  -73.0847 H         1 UNK         0.0461 
     84 H84       -76.0907   29.6350  -76.0820 H         1 UNK         0.3453 
     85 H85       -77.7663   30.1090  -75.8789 H         1 UNK         0.3453 
     86 H86       -73.8673   28.6764  -74.6687 H         1 UNK         0.2984 
     87 H87       -73.1861   29.9475  -77.3575 H         1 UNK         0.0554 
     88 H88       -70.8272   30.8049  -77.4999 H         1 UNK         0.0847 
     89 H89       -70.9787   31.4497  -75.8650 H         1 UNK         0.0847 
     90 H90       -71.9935   32.0693  -77.1548 H         1 UNK         0.0847 
     91 H91       -72.3256   28.0441  -76.7573 H         1 UNK         0.3141 
     92 H92       -69.6865   26.9244  -75.2473 H         1 UNK         0.0743 
     93 H93       -71.9762   26.6935  -73.2251 H         1 UNK         0.0784 
     94 H94       -70.7433   25.4521  -73.4633 H         1 UNK         0.0784 
     95 H95       -70.2928   27.0469  -72.8841 H         1 UNK         0.0784 
     96 H96       -72.4661   25.9311  -75.6276 H         1 UNK         0.3213 
     97 H97       -71.9629   25.2335  -79.0230 H         1 UNK         0.0855 
     98 H98       -71.9857   23.0462  -76.8688 H         1 UNK         0.0814 
     99 H99       -70.8038   23.1918  -78.1615 H         1 UNK         0.0814 
    100 H100      -72.4797   22.8480  -78.5514 H         1 UNK         0.0814 
    101 H101      -74.0331   24.4138  -77.2374 H         1 UNK         0.3105 
    102 H102      -75.7337   27.4869  -76.9004 H         1 UNK         0.0547 
    103 H103      -76.5412   25.0452  -78.5707 H         1 UNK         0.0837 
    104 H104      -77.6229   26.2626  -77.8958 H         1 UNK         0.0837 
    105 H105      -76.4905   26.7026  -79.1612 H         1 UNK         0.0837 
    106 H106      -76.4347   24.8477  -76.0863 H         1 UNK         0.3020 
    107 H107      -74.7776   23.7677  -74.1125 H         1 UNK         0.1245 
    108 H108      -73.6022   25.1122  -72.5096 H         1 UNK         0.0781 
    109 H109      -75.0088   26.0805  -72.1800 H         1 UNK         0.0781 
    110 H110      -75.3731   24.4835  -68.6991 H         1 UNK         0.0836 
    111 H111      -73.8477   25.0741  -69.3106 H         1 UNK         0.0836 
    112 H112      -77.1590   24.4977  -72.7557 H         1 UNK         0.3022 
    113 H113      -78.5708   21.7118  -74.0990 H         1 UNK         0.0747 
    114 H114      -79.7375   22.3201  -72.0412 H         1 UNK         0.0793 
    115 H115      -78.0281   22.6200  -71.8170 H         1 UNK         0.0793 
    116 H116      -79.1320   23.9648  -72.1011 H         1 UNK         0.0793 
    117 H117      -79.7798   24.2063  -75.0181 H         1 UNK         0.3047 
    118 H118      -82.5003   22.4848  -76.3345 H         1 UNK         0.0822 
    119 H119      -84.1893   23.8142  -75.0717 H         1 UNK         0.0807 
    120 H120      -83.0212   24.1070  -73.7816 H         1 UNK         0.0807 
    121 H121      -83.6017   22.4785  -74.0978 H         1 UNK         0.0807 
    122 H122      -82.1072   25.2971  -75.7259 H         1 UNK         0.2946 
    123 H123      -79.9231   26.0151  -78.3284 H         1 UNK         0.1144 
    124 H124      -81.6875   27.4857  -79.2709 H         1 UNK         0.0793 
    125 H125      -82.9393   26.5659  -78.4337 H         1 UNK         0.0793 
    126 H126      -81.9955   25.8156  -79.7132 H         1 UNK         0.0793 
    127 H127      -81.4927   27.7747  -76.7727 H         1 UNK         0.2896 
@<TRIPOS>BOND
     1    1    2 1    
     2    1   67 1    
     3    1   68 1    
     4    1   69 1    
     5    2    3 2    
     6    2    4 am   BACKBONE|DICT|INTERRES
     7    4    5 1    
     8    4   70 1    
     9    5    6 1    
    10    5   65 1    
    11    5   71 1    
    12    6    7 1    
    13    6   72 1    
    14    6   73 1    
    15    7    8 1    
    16    8    9 1    
    17    8   74 1    
    18    8   75 1    
    19    9   10 ar   
    20    9   14 ar   
    21   10   11 ar   
    22   10   76 1    
    23   11   12 ar   
    24   11   48 1    
    25   12   13 ar   
    26   12   77 1    
    27   13   14 ar   
    28   13   15 1    
    29   14   78 1    
    30   15   16 1    
    31   15   79 1    
    32   15   80 1    
    33   16   17 1    
    34   17   18 1    
    35   17   81 1    
    36   17   82 1    
    37   18   19 1    
    38   18   22 1    
    39   18   83 1    
    40   19   20 am   BACKBONE|DICT|INTERRES
    41   19   21 2    
    42   20   84 1    
    43   20   85 1    
    44   22   23 am   BACKBONE|DICT|INTERRES
    45   22   86 1    
    46   23   24 2    
    47   23   25 1    
    48   25   26 1    
    49   25   27 1    
    50   25   87 1    
    51   26   88 1    
    52   26   89 1    
    53   26   90 1    
    54   27   28 am   BACKBONE|DICT|INTERRES
    55   27   91 1    
    56   28   29 2    
    57   28   30 1    
    58   30   31 1    
    59   30   32 1    
    60   30   92 1    
    61   31   93 1    
    62   31   94 1    
    63   31   95 1    
    64   32   33 am   BACKBONE|DICT|INTERRES
    65   32   96 1    
    66   33   34 2    
    67   33   35 1    
    68   35   36 1    
    69   35   37 1    
    70   35   97 1    
    71   36   98 1    
    72   36   99 1    
    73   36  100 1    
    74   37   38 am   BACKBONE|DICT|INTERRES
    75   37  101 1    
    76   38   39 2    
    77   38   40 1    
    78   40   41 1    
    79   40   42 1    
    80   40  102 1    
    81   41  103 1    
    82   41  104 1    
    83   41  105 1    
    84   42   43 am   BACKBONE|DICT|INTERRES
    85   42  106 1    
    86   43   44 2    
    87   43   45 1    
    88   45   46 1    
    89   45   49 1    
    90   45  107 1    
    91   46   47 1    
    92   46  108 1    
    93   46  109 1    
    94   47   48 1    
    95   48  110 1    
    96   48  111 1    
    97   49   50 am   BACKBONE|DICT|INTERRES
    98   49  112 1    
    99   50   51 2    
   100   50   52 1    
   101   52   53 1    
   102   52   54 1    
   103   52  113 1    
   104   53  114 1    
   105   53  115 1    
   106   53  116 1    
   107   54   55 am   BACKBONE|DICT|INTERRES
   108   54  117 1    
   109   55   56 2    
   110   55   57 1    
   111   57   58 1    
   112   57   59 1    
   113   57  118 1    
   114   58  119 1    
   115   58  120 1    
   116   58  121 1    
   117   59   60 am   BACKBONE|DICT|INTERRES
   118   59  122 1    
   119   60   61 2    
   120   60   62 1    
   121   62   63 1    
   122   62   64 1    
   123   62  123 1    
   124   63  124 1    
   125   63  125 1    
   126   63  126 1    
   127   64   65 am   BACKBONE|DICT|INTERRES
   128   64  127 1    
   129   65   66 2    
@<TRIPOS>SUBSTRUCTURE
     1 UNK         1 GROUP             0       ****    0 ROOT    
