@<TRIPOS>MOLECULE
3R135
127   129    1
SMALL
USER_CHARGES


@<TRIPOS>ATOM
      1 CA        -80.1166   23.6456  -71.8782 C.3       0 UNK        -0.1998 
      2 C         -80.7934   24.5531  -72.8930 C.2       0 UNK         0.4909 
      3 O         -81.4056   24.0580  -73.8399 O.2       0 UNK        -0.5240 
      4 N         -80.6942   25.8765  -72.7044 N.am      1 UNK        -0.4739 
      5 CA        -81.2900   26.8971  -73.5763 C.3       1 UNK         0.0864 
      6 C6        -81.0922   28.3340  -73.0351 C.3       11 UNK        -0.0881 
      7 S7        -81.8961   28.5676  -71.4132 S.3       11 UNK        -0.2682 
      8 C8        -81.0052   30.0202  -70.7519 C.3       11 UNK         0.0289 
      9 C9        -79.5030   29.8044  -70.5833 C.ar      11 UNK        -0.0687 
     10 C10       -78.9996   28.5935  -70.0941 C.ar      11 UNK        -0.0823 
     11 C11       -77.6225   28.3865  -70.0013 C.ar      11 UNK        -0.0830 
     12 C12       -76.7464   29.4279  -70.3088 C.ar      11 UNK        -0.1021 
     13 C13       -77.2280   30.6343  -70.8199 C.ar      11 UNK        -0.0753 
     14 C14       -78.6092   30.8188  -70.9488 C.ar      11 UNK        -0.0933 
     15 C15       -76.2527   31.7144  -71.2718 C.3       11 UNK         0.0166 
     16 S16       -75.4162   31.2611  -72.8328 S.3       11 UNK        -0.2615 
     17 C17       -74.0920   30.1447  -72.2475 C.3       11 UNK        -0.0865 
     18 CA        -72.7593   30.3363  -73.0120 C.3       10 UNK         0.0862 
     19 C         -71.5988   29.6117  -72.2794 C.2       10 UNK         0.5551 
     20 N         -70.7075   30.3528  -71.6361 N.am      10 UNK        -0.7319 
     21 O         -71.5323   28.3848  -72.2499 O.2       10 UNK        -0.5018 
     22 N         -72.8608   29.8691  -74.3993 N.am      10 UNK        -0.4509 
     23 C         -72.0185   30.2273  -75.3757 C.2       10 UNK         0.4899 
     24 O         -71.1484   31.0914  -75.2496 O.2       10 UNK        -0.4839 
     25 CA        -72.1787   29.4777  -76.7101 C.3       9 UNK         0.0222 
     26 CB        -71.1488   29.8994  -77.7795 C.3       9 UNK        -0.1966 
     27 N         -72.1782   28.0236  -76.5217 N.am      9 UNK        -0.4218 
     28 C         -71.2005   27.2513  -76.0218 C.2       9 UNK         0.5020 
     29 O         -70.0870   27.6686  -75.7002 O.2       9 UNK        -0.5274 
     30 CA        -71.5098   25.7513  -75.8381 C.3       8 UNK         0.0270 
     31 CB        -71.6941   25.4271  -74.3463 C.3       8 UNK        -0.1976 
     32 N         -72.6956   25.2995  -76.5726 N.am      8 UNK        -0.4313 
     33 C         -72.7617   25.1407  -77.9020 C.2       8 UNK         0.5041 
     34 O         -71.7942   25.2589  -78.6548 O.2       8 UNK        -0.5577 
     35 CA        -74.1519   24.8506  -78.4970 C.3       7 UNK         0.0284 
     36 CB        -74.4790   23.3510  -78.4241 C.3       7 UNK        -0.1958 
     37 N         -75.2175   25.6292  -77.8544 N.am      7 UNK        -0.4454 
     38 C         -75.3035   26.9679  -77.8921 C.2       7 UNK         0.5089 
     39 O         -74.5258   27.6849  -78.5198 O.2       7 UNK        -0.5125 
     40 CA        -76.4071   27.6303  -77.0540 C.3       6 UNK         0.0408 
     41 CB        -77.7201   27.6896  -77.8444 C.3       6 UNK        -0.1791 
     42 N         -76.6198   26.9526  -75.7741 N.am      6 UNK        -0.4762 
     43 C         -75.7415   26.9608  -74.7606 C.2       6 UNK         0.5007 
     44 O         -74.6907   27.6041  -74.7752 O.2       6 UNK        -0.5032 
     45 CA        -76.0682   26.0688  -73.5457 C.3       5 UNK         0.0783 
     46 C46       -77.0266   26.7887  -72.5752 C.3       11 UNK        -0.0857 
     47 S47       -77.3799   25.8277  -71.0545 S.3       11 UNK        -0.2512 
     48 C48       -77.0682   27.0055  -69.6889 C.3       11 UNK         0.0225 
     49 N         -76.5631   24.7507  -73.9551 N.am      5 UNK        -0.4615 
     50 C         -75.8019   23.8296  -74.5569 C.2       4 UNK         0.5053 
     51 O         -74.6266   24.0165  -74.8688 O.2       4 UNK        -0.5105 
     52 CA        -76.4517   22.4738  -74.8754 C.3       4 UNK         0.0263 
     53 CB        -76.4061   21.5597  -73.6404 C.3       4 UNK        -0.1981 
     54 N         -77.8261   22.5373  -75.3832 N.am      4 UNK        -0.4224 
     55 C         -78.2437   23.2361  -76.4492 C.2       3 UNK         0.4895 
     56 O         -77.5351   24.0408  -77.0563 O.2       3 UNK        -0.5091 
     57 CA        -79.6786   22.9675  -76.9445 C.3       3 UNK         0.0250 
     58 CB        -80.3918   21.7984  -76.2323 C.3       3 UNK        -0.1996 
     59 N         -80.4863   24.1780  -76.8142 N.am      3 UNK        -0.4254 
     60 C         -80.5953   25.1264  -77.7562 C.2       2 UNK         0.5004 
     61 O         -80.1245   25.0191  -78.8896 O.2       2 UNK        -0.5226 
     62 CA        -81.3662   26.4157  -77.4034 C.3       2 UNK         0.0269 
     63 CB        -82.6863   26.4865  -78.1898 C.3       2 UNK        -0.1926 
     64 N         -81.6587   26.5946  -75.9778 N.am      2 UNK        -0.4687 
     65 C         -80.7472   26.7775  -75.0132 C.2       1 UNK         0.5165 
     66 O         -79.5317   26.8176  -75.2112 O.2       1 UNK        -0.5079 
     67 H67       -80.7529   22.7898  -71.6550 H         1 UNK         0.0900 
     68 H68       -79.9181   24.1667  -70.9420 H         1 UNK         0.0900 
     69 H69       -79.1721   23.2748  -72.2738 H         1 UNK         0.0900 
     70 H70       -80.1662   26.2304  -71.9199 H         1 UNK         0.2959 
     71 H71       -82.3636   26.6972  -73.6022 H         1 UNK         0.1079 
     72 H72       -80.0281   28.5651  -72.9594 H         1 UNK         0.0837 
     73 H73       -81.5159   29.0681  -73.7234 H         1 UNK         0.0837 
     74 H74       -81.4297   30.2782  -69.7811 H         1 UNK         0.0685 
     75 H75       -81.1988   30.8688  -71.4100 H         1 UNK         0.0685 
     76 H76       -79.6748   27.7875  -69.8425 H         1 UNK         0.1434 
     77 H77       -75.6832   29.2658  -70.2202 H         1 UNK         0.1329 
     78 H78       -78.9884   31.7494  -71.3487 H         1 UNK         0.1335 
     79 H79       -76.7825   32.6553  -71.4282 H         1 UNK         0.0680 
     80 H80       -75.5185   31.9099  -70.4891 H         1 UNK         0.0680 
     81 H81       -74.4349   29.1114  -72.3260 H         1 UNK         0.1032 
     82 H82       -73.9274   30.3350  -71.1857 H         1 UNK         0.1032 
     83 H83       -72.5389   31.4060  -73.0292 H         1 UNK         0.0461 
     84 H84       -70.7578   31.3597  -71.6524 H         1 UNK         0.3453 
     85 H85       -69.9572   29.8968  -71.1409 H         1 UNK         0.3453 
     86 H86       -73.5181   29.1120  -74.5688 H         1 UNK         0.2984 
     87 H87       -73.1688   29.7349  -77.0889 H         1 UNK         0.0554 
     88 H88       -71.2264   30.9657  -77.9951 H         1 UNK         0.0847 
     89 H89       -71.3121   29.3667  -78.7164 H         1 UNK         0.0847 
     90 H90       -70.1247   29.7076  -77.4581 H         1 UNK         0.0847 
     91 H91       -73.0528   27.5674  -76.7456 H         1 UNK         0.3141 
     92 H92       -70.6469   25.1923  -76.2059 H         1 UNK         0.0743 
     93 H93       -70.8146   25.7179  -73.7700 H         1 UNK         0.0784 
     94 H94       -72.5475   25.9584  -73.9228 H         1 UNK         0.0784 
     95 H95       -71.8497   24.3600  -74.1865 H         1 UNK         0.0784 
     96 H96       -73.5191   25.0829  -76.0150 H         1 UNK         0.3213 
     97 H97       -74.1259   25.1394  -79.5499 H         1 UNK         0.0855 
     98 H98       -74.5009   22.9915  -77.3961 H         1 UNK         0.0814 
     99 H99       -73.7303   22.7640  -78.9576 H         1 UNK         0.0814 
    100 H100      -75.4465   23.1326  -78.8766 H         1 UNK         0.0814 
    101 H101      -75.9441   25.1094  -77.3671 H         1 UNK         0.3105 
    102 H102      -76.0955   28.6557  -76.8434 H         1 UNK         0.0547 
    103 H103      -77.5808   28.2000  -78.7982 H         1 UNK         0.0837 
    104 H104      -78.0986   26.6908  -78.0606 H         1 UNK         0.0837 
    105 H105      -78.4873   28.2342  -77.2948 H         1 UNK         0.0837 
    106 H106      -77.4931   26.4476  -75.6655 H         1 UNK         0.3020 
    107 H107      -75.1253   25.9106  -73.0162 H         1 UNK         0.1245 
    108 H108      -77.9766   27.0121  -73.0614 H         1 UNK         0.0781 
    109 H109      -76.5915   27.7519  -72.3173 H         1 UNK         0.0781 
    110 H110      -77.5239   26.6245  -68.7740 H         1 UNK         0.0836 
    111 H111      -75.9942   27.0506  -69.5016 H         1 UNK         0.0836 
    112 H112      -77.5250   24.5374  -73.7422 H         1 UNK         0.3022 
    113 H113      -75.8501   22.0070  -75.6572 H         1 UNK         0.0747 
    114 H114      -75.3881   21.4720  -73.2577 H         1 UNK         0.0793 
    115 H115      -77.0260   21.9428  -72.8289 H         1 UNK         0.0793 
    116 H116      -76.7468   20.5517  -73.8777 H         1 UNK         0.0793 
    117 H117      -78.4876   21.9069  -74.9541 H         1 UNK         0.3047 
    118 H118      -79.5949   22.6970  -77.9993 H         1 UNK         0.0822 
    119 H119      -81.3846   21.6373  -76.6531 H         1 UNK         0.0807 
    120 H120      -80.5177   21.9731  -75.1638 H         1 UNK         0.0807 
    121 H121      -79.8424   20.8642  -76.3579 H         1 UNK         0.0807 
    122 H122      -80.8936   24.3490  -75.9011 H         1 UNK         0.2946 
    123 H123      -80.7378   27.2510  -77.7187 H         1 UNK         0.1144 
    124 H124      -82.5088   26.4015  -79.2630 H         1 UNK         0.0793 
    125 H125      -83.1981   27.4348  -78.0245 H         1 UNK         0.0793 
    126 H126      -83.3667   25.6818  -77.9081 H         1 UNK         0.0793 
    127 H127      -82.6334   26.5441  -75.7173 H         1 UNK         0.2896 
@<TRIPOS>BOND
     1    1    2 1    
     2    1   67 1    
     3    1   68 1    
     4    1   69 1    
     5    2    3 2    
     6    2    4 am   BACKBONE|DICT|INTERRES
     7    4    5 1    
     8    4   70 1    
     9    5    6 1    
    10    5   65 1    
    11    5   71 1    
    12    6    7 1    
    13    6   72 1    
    14    6   73 1    
    15    7    8 1    
    16    8    9 1    
    17    8   74 1    
    18    8   75 1    
    19    9   10 ar   
    20    9   14 ar   
    21   10   11 ar   
    22   10   76 1    
    23   11   12 ar   
    24   11   48 1    
    25   12   13 ar   
    26   12   77 1    
    27   13   14 ar   
    28   13   15 1    
    29   14   78 1    
    30   15   16 1    
    31   15   79 1    
    32   15   80 1    
    33   16   17 1    
    34   17   18 1    
    35   17   81 1    
    36   17   82 1    
    37   18   19 1    
    38   18   22 1    
    39   18   83 1    
    40   19   20 am   BACKBONE|DICT|INTERRES
    41   19   21 2    
    42   20   84 1    
    43   20   85 1    
    44   22   23 am   BACKBONE|DICT|INTERRES
    45   22   86 1    
    46   23   24 2    
    47   23   25 1    
    48   25   26 1    
    49   25   27 1    
    50   25   87 1    
    51   26   88 1    
    52   26   89 1    
    53   26   90 1    
    54   27   28 am   BACKBONE|DICT|INTERRES
    55   27   91 1    
    56   28   29 2    
    57   28   30 1    
    58   30   31 1    
    59   30   32 1    
    60   30   92 1    
    61   31   93 1    
    62   31   94 1    
    63   31   95 1    
    64   32   33 am   BACKBONE|DICT|INTERRES
    65   32   96 1    
    66   33   34 2    
    67   33   35 1    
    68   35   36 1    
    69   35   37 1    
    70   35   97 1    
    71   36   98 1    
    72   36   99 1    
    73   36  100 1    
    74   37   38 am   BACKBONE|DICT|INTERRES
    75   37  101 1    
    76   38   39 2    
    77   38   40 1    
    78   40   41 1    
    79   40   42 1    
    80   40  102 1    
    81   41  103 1    
    82   41  104 1    
    83   41  105 1    
    84   42   43 am   BACKBONE|DICT|INTERRES
    85   42  106 1    
    86   43   44 2    
    87   43   45 1    
    88   45   46 1    
    89   45   49 1    
    90   45  107 1    
    91   46   47 1    
    92   46  108 1    
    93   46  109 1    
    94   47   48 1    
    95   48  110 1    
    96   48  111 1    
    97   49   50 am   BACKBONE|DICT|INTERRES
    98   49  112 1    
    99   50   51 2    
   100   50   52 1    
   101   52   53 1    
   102   52   54 1    
   103   52  113 1    
   104   53  114 1    
   105   53  115 1    
   106   53  116 1    
   107   54   55 am   BACKBONE|DICT|INTERRES
   108   54  117 1    
   109   55   56 2    
   110   55   57 1    
   111   57   58 1    
   112   57   59 1    
   113   57  118 1    
   114   58  119 1    
   115   58  120 1    
   116   58  121 1    
   117   59   60 am   BACKBONE|DICT|INTERRES
   118   59  122 1    
   119   60   61 2    
   120   60   62 1    
   121   62   63 1    
   122   62   64 1    
   123   62  123 1    
   124   63  124 1    
   125   63  125 1    
   126   63  126 1    
   127   64   65 am   BACKBONE|DICT|INTERRES
   128   64  127 1    
   129   65   66 2    
@<TRIPOS>SUBSTRUCTURE
     1 UNK         1 GROUP             0       ****    0 ROOT    
