@<TRIPOS>MOLECULE
3R135
127   129    1
SMALL
USER_CHARGES


@<TRIPOS>ATOM
      1 CA        -86.0270   27.7158  -73.4408 C.3       0 UNK        -0.1998 
      2 C         -85.0619   28.8440  -73.1086 C.2       0 UNK         0.4909 
      3 O         -85.4963   29.9683  -72.8549 O.2       0 UNK        -0.5240 
      4 N         -83.7582   28.5548  -73.1124 N.am      1 UNK        -0.4739 
      5 CA        -82.6786   29.4966  -72.8217 C.3       1 UNK         0.0864 
      6 C6        -82.4858   29.7665  -71.3021 C.3       11 UNK        -0.0881 
      7 S7        -82.3957   28.2679  -70.2544 S.3       11 UNK        -0.2682 
      8 C8        -80.7511   28.4065  -69.4782 C.3       11 UNK         0.0289 
      9 C9        -79.6265   27.8492  -70.3438 C.ar      11 UNK        -0.0687 
     10 C10       -79.6461   26.5074  -70.7433 C.ar      11 UNK        -0.0823 
     11 C11       -78.5878   25.9710  -71.4818 C.ar      11 UNK        -0.0830 
     12 C12       -77.5013   26.7824  -71.8086 C.ar      11 UNK        -0.1021 
     13 C13       -77.4671   28.1277  -71.4280 C.ar      11 UNK        -0.0753 
     14 C14       -78.5364   28.6550  -70.6946 C.ar      11 UNK        -0.0933 
     15 C15       -76.2767   29.0069  -71.8020 C.3       11 UNK         0.0166 
     16 S16       -75.8007   28.8014  -73.5475 S.3       11 UNK        -0.2615 
     17 C17       -74.4921   30.0526  -73.7460 C.3       11 UNK        -0.0865 
     18 CA        -74.1248   30.2562  -75.2406 C.3       10 UNK         0.0862 
     19 C         -73.0658   31.3845  -75.4169 C.2       10 UNK         0.5551 
     20 N         -71.9095   31.1375  -76.0229 N.am      10 UNK        -0.7319 
     21 O         -73.3035   32.5144  -74.9978 O.2       10 UNK        -0.5018 
     22 N         -73.7659   28.9809  -75.8769 N.am      10 UNK        -0.4509 
     23 C         -73.8360   28.7092  -77.1843 C.2       10 UNK         0.4899 
     24 O         -74.2758   29.4917  -78.0281 O.2       10 UNK        -0.4839 
     25 CA        -73.3022   27.3249  -77.6058 C.3       9 UNK         0.0222 
     26 CB        -72.9860   27.2313  -79.1124 C.3       9 UNK        -0.1966 
     27 N         -72.1552   26.8770  -76.8012 N.am      9 UNK        -0.4218 
     28 C         -70.9848   27.5184  -76.6329 C.2       9 UNK         0.5020 
     29 O         -70.7135   28.5891  -77.1789 O.2       9 UNK        -0.5274 
     30 CA        -69.9582   26.9200  -75.6497 C.3       8 UNK         0.0270 
     31 CB        -69.7889   27.8452  -74.4314 C.3       8 UNK        -0.1976 
     32 N         -70.3047   25.5800  -75.1730 N.am      8 UNK        -0.4313 
     33 C         -70.1731   24.4499  -75.8795 C.2       8 UNK         0.5041 
     34 O         -69.6578   24.3967  -76.9966 O.2       8 UNK        -0.5577 
     35 CA        -70.7367   23.1642  -75.2429 C.3       7 UNK         0.0284 
     36 CB        -69.6105   22.3598  -74.5732 C.3       7 UNK        -0.1958 
     37 N         -71.8188   23.3854  -74.2713 N.am      7 UNK        -0.4454 
     38 C         -72.9955   23.9622  -74.5507 C.2       7 UNK         0.5089 
     39 O         -73.2753   24.4498  -75.6480 O.2       7 UNK        -0.5125 
     40 CA        -74.0039   24.0691  -73.4007 C.3       6 UNK         0.0408 
     41 CB        -73.9643   25.4802  -72.7954 C.3       6 UNK        -0.1791 
     42 N         -75.3375   23.8020  -73.9338 N.am      6 UNK        -0.4762 
     43 C         -75.9677   22.6206  -73.8486 C.2       6 UNK         0.5007 
     44 O         -75.5983   21.7011  -73.1169 O.2       6 UNK        -0.5032 
     45 CA        -77.1925   22.4024  -74.7665 C.3       5 UNK         0.0783 
     46 C46       -78.5342   22.6268  -74.0200 C.3       11 UNK        -0.0857 
     47 S47       -78.9368   24.3825  -73.7080 S.3       11 UNK        -0.2512 
     48 C48       -78.5957   24.5167  -71.9259 C.3       11 UNK         0.0225 
     49 N         -77.1071   23.1930  -75.9978 N.am      5 UNK        -0.4615 
     50 C         -76.1880   23.0384  -76.9605 C.2       4 UNK         0.5053 
     51 O         -75.4274   22.0710  -77.0101 O.2       4 UNK        -0.5105 
     52 CA        -76.0776   24.1392  -78.0405 C.3       4 UNK         0.0263 
     53 CB        -76.1102   23.5347  -79.4552 C.3       4 UNK        -0.1981 
     54 N         -77.0877   25.2043  -77.9621 N.am      4 UNK        -0.4224 
     55 C         -77.2215   26.1089  -76.9822 C.2       3 UNK         0.4895 
     56 O         -76.4791   26.1674  -75.9984 O.2       3 UNK        -0.5091 
     57 CA        -78.4253   27.0556  -77.1014 C.3       3 UNK         0.0250 
     58 CB        -79.7489   26.2635  -77.2184 C.3       3 UNK        -0.1996 
     59 N         -78.4602   27.9237  -75.9280 N.am      3 UNK        -0.4254 
     60 C         -79.2482   28.9901  -75.7564 C.2       2 UNK         0.5004 
     61 O         -80.0064   29.4418  -76.6187 O.2       2 UNK        -0.5226 
     62 CA        -79.1682   29.6821  -74.3862 C.3       2 UNK         0.0269 
     63 CB        -78.4040   31.0131  -74.4905 C.3       2 UNK        -0.1926 
     64 N         -80.4794   29.9312  -73.7848 N.am      2 UNK        -0.4687 
     65 C         -81.3949   28.9944  -73.4992 C.2       1 UNK         0.5165 
     66 O         -81.2613   27.7906  -73.7368 O.2       1 UNK        -0.5079 
     67 H67       -86.7118   27.5514  -72.6091 H         1 UNK         0.0900 
     68 H68       -85.5054   26.7796  -73.6401 H         1 UNK         0.0900 
     69 H69       -86.6149   27.9713  -74.3220 H         1 UNK         0.0900 
     70 H70       -83.4272   27.6283  -73.3535 H         1 UNK         0.2959 
     71 H71       -82.9315   30.4434  -73.3053 H         1 UNK         0.1079 
     72 H72       -81.6084   30.3928  -71.1318 H         1 UNK         0.0837 
     73 H73       -83.3296   30.3559  -70.9404 H         1 UNK         0.0837 
     74 H74       -80.7682   27.8459  -68.5427 H         1 UNK         0.0685 
     75 H75       -80.5626   29.4448  -69.2015 H         1 UNK         0.0685 
     76 H76       -80.4871   25.8826  -70.4753 H         1 UNK         0.1434 
     77 H77       -76.6895   26.3645  -72.3858 H         1 UNK         0.1329 
     78 H78       -78.5135   29.6906  -70.3842 H         1 UNK         0.1335 
     79 H79       -75.4292   28.7519  -71.1646 H         1 UNK         0.0680 
     80 H80       -76.5072   30.0581  -71.6219 H         1 UNK         0.0680 
     81 H81       -73.6181   29.7446  -73.1692 H         1 UNK         0.1032 
     82 H82       -74.8400   30.9901  -73.3076 H         1 UNK         0.1032 
     83 H83       -75.0220   30.6221  -75.7436 H         1 UNK         0.0461 
     84 H84       -71.2431   31.8856  -76.1280 H         1 UNK         0.3453 
     85 H85       -71.6964   30.2207  -76.3986 H         1 UNK         0.3453 
     86 H86       -73.4124   28.2663  -75.2602 H         1 UNK         0.2984 
     87 H87       -74.1071   26.6227  -77.3930 H         1 UNK         0.0554 
     88 H88       -72.6414   26.2333  -79.3828 H         1 UNK         0.0847 
     89 H89       -72.2165   27.9449  -79.4085 H         1 UNK         0.0847 
     90 H90       -73.8727   27.4398  -79.7123 H         1 UNK         0.0847 
     91 H91       -72.3060   25.9989  -76.3106 H         1 UNK         0.3141 
     92 H92       -69.0019   26.8653  -76.1744 H         1 UNK         0.0743 
     93 H93       -69.4838   28.8467  -74.7385 H         1 UNK         0.0784 
     94 H94       -70.7172   27.9478  -73.8677 H         1 UNK         0.0784 
     95 H95       -69.0219   27.4718  -73.7525 H         1 UNK         0.0784 
     96 H96       -70.7224   25.5163  -74.2563 H         1 UNK         0.3213 
     97 H97       -71.1493   22.5625  -76.0558 H         1 UNK         0.0855 
     98 H98       -69.1765   22.8969  -73.7289 H         1 UNK         0.0814 
     99 H99       -68.8034   22.1565  -75.2788 H         1 UNK         0.0814 
    100 H100      -69.9700   21.3962  -74.2116 H         1 UNK         0.0814 
    101 H101      -71.6667   23.0260  -73.3391 H         1 UNK         0.3105 
    102 H102      -73.7440   23.3488  -72.6223 H         1 UNK         0.0547 
    103 H103      -74.2787   26.2357  -73.5163 H         1 UNK         0.0837 
    104 H104      -74.6120   25.5518  -71.9226 H         1 UNK         0.0837 
    105 H105      -72.9581   25.7411  -72.4655 H         1 UNK         0.0837 
    106 H106      -75.6827   24.4804  -74.6044 H         1 UNK         0.3020 
    107 H107      -77.1579   21.3511  -75.0621 H         1 UNK         0.1245 
    108 H108      -78.5578   22.0650  -73.0841 H         1 UNK         0.0781 
    109 H109      -79.3462   22.2152  -74.6211 H         1 UNK         0.0781 
    110 H110      -77.6267   24.0684  -71.7014 H         1 UNK         0.0836 
    111 H111      -79.3403   23.9443  -71.3708 H         1 UNK         0.0836 
    112 H112      -77.6798   24.0241  -76.0158 H         1 UNK         0.3022 
    113 H113      -75.0995   24.6008  -77.8979 H         1 UNK         0.0747 
    114 H114      -75.9474   24.2973  -80.2171 H         1 UNK         0.0793 
    115 H115      -75.3269   22.7861  -79.5827 H         1 UNK         0.0793 
    116 H116      -77.0636   23.0473  -79.6627 H         1 UNK         0.0793 
    117 H117      -77.7577   25.2236  -78.7176 H         1 UNK         0.3047 
    118 H118      -78.2828   27.6744  -77.9895 H         1 UNK         0.0822 
    119 H119      -79.7609   25.6153  -78.0947 H         1 UNK         0.0807 
    120 H120      -80.6086   26.9263  -77.3149 H         1 UNK         0.0807 
    121 H121      -79.9181   25.6360  -76.3426 H         1 UNK         0.0807 
    122 H122      -77.8093   27.6472  -75.2003 H         1 UNK         0.2946 
    123 H123      -78.6381   29.0181  -73.7050 H         1 UNK         0.1144 
    124 H124      -77.4371   30.8739  -74.9750 H         1 UNK         0.0793 
    125 H125      -78.2125   31.4387  -73.5054 H         1 UNK         0.0793 
    126 H126      -78.9548   31.7488  -75.0778 H         1 UNK         0.0793 
    127 H127      -80.6925   30.8958  -73.5772 H         1 UNK         0.2896 
@<TRIPOS>BOND
     1    1    2 1    
     2    1   67 1    
     3    1   68 1    
     4    1   69 1    
     5    2    3 2    
     6    2    4 am   BACKBONE|DICT|INTERRES
     7    4    5 1    
     8    4   70 1    
     9    5    6 1    
    10    5   65 1    
    11    5   71 1    
    12    6    7 1    
    13    6   72 1    
    14    6   73 1    
    15    7    8 1    
    16    8    9 1    
    17    8   74 1    
    18    8   75 1    
    19    9   10 ar   
    20    9   14 ar   
    21   10   11 ar   
    22   10   76 1    
    23   11   12 ar   
    24   11   48 1    
    25   12   13 ar   
    26   12   77 1    
    27   13   14 ar   
    28   13   15 1    
    29   14   78 1    
    30   15   16 1    
    31   15   79 1    
    32   15   80 1    
    33   16   17 1    
    34   17   18 1    
    35   17   81 1    
    36   17   82 1    
    37   18   19 1    
    38   18   22 1    
    39   18   83 1    
    40   19   20 am   BACKBONE|DICT|INTERRES
    41   19   21 2    
    42   20   84 1    
    43   20   85 1    
    44   22   23 am   BACKBONE|DICT|INTERRES
    45   22   86 1    
    46   23   24 2    
    47   23   25 1    
    48   25   26 1    
    49   25   27 1    
    50   25   87 1    
    51   26   88 1    
    52   26   89 1    
    53   26   90 1    
    54   27   28 am   BACKBONE|DICT|INTERRES
    55   27   91 1    
    56   28   29 2    
    57   28   30 1    
    58   30   31 1    
    59   30   32 1    
    60   30   92 1    
    61   31   93 1    
    62   31   94 1    
    63   31   95 1    
    64   32   33 am   BACKBONE|DICT|INTERRES
    65   32   96 1    
    66   33   34 2    
    67   33   35 1    
    68   35   36 1    
    69   35   37 1    
    70   35   97 1    
    71   36   98 1    
    72   36   99 1    
    73   36  100 1    
    74   37   38 am   BACKBONE|DICT|INTERRES
    75   37  101 1    
    76   38   39 2    
    77   38   40 1    
    78   40   41 1    
    79   40   42 1    
    80   40  102 1    
    81   41  103 1    
    82   41  104 1    
    83   41  105 1    
    84   42   43 am   BACKBONE|DICT|INTERRES
    85   42  106 1    
    86   43   44 2    
    87   43   45 1    
    88   45   46 1    
    89   45   49 1    
    90   45  107 1    
    91   46   47 1    
    92   46  108 1    
    93   46  109 1    
    94   47   48 1    
    95   48  110 1    
    96   48  111 1    
    97   49   50 am   BACKBONE|DICT|INTERRES
    98   49  112 1    
    99   50   51 2    
   100   50   52 1    
   101   52   53 1    
   102   52   54 1    
   103   52  113 1    
   104   53  114 1    
   105   53  115 1    
   106   53  116 1    
   107   54   55 am   BACKBONE|DICT|INTERRES
   108   54  117 1    
   109   55   56 2    
   110   55   57 1    
   111   57   58 1    
   112   57   59 1    
   113   57  118 1    
   114   58  119 1    
   115   58  120 1    
   116   58  121 1    
   117   59   60 am   BACKBONE|DICT|INTERRES
   118   59  122 1    
   119   60   61 2    
   120   60   62 1    
   121   62   63 1    
   122   62   64 1    
   123   62  123 1    
   124   63  124 1    
   125   63  125 1    
   126   63  126 1    
   127   64   65 am   BACKBONE|DICT|INTERRES
   128   64  127 1    
   129   65   66 2    
@<TRIPOS>SUBSTRUCTURE
     1 UNK         1 GROUP             0       ****    0 ROOT    
