@<TRIPOS>MOLECULE
3R135
127   129    1
SMALL
USER_CHARGES


@<TRIPOS>ATOM
      1 CA        -81.1913   28.8360  -78.3926 C.3       0 UNK        -0.1998 
      2 C         -81.0760   27.9287  -77.1777 C.2       0 UNK         0.4909 
      3 O         -80.6235   26.7900  -77.3082 O.2       0 UNK        -0.5240 
      4 N         -81.4716   28.4294  -75.9980 N.am      1 UNK        -0.4739 
      5 CA        -81.4507   27.7232  -74.7098 C.3       1 UNK         0.0864 
      6 C6        -81.9039   28.6255  -73.5379 C.3       11 UNK        -0.0881 
      7 S7        -80.8869   30.1371  -73.3933 S.3       11 UNK        -0.2682 
      8 C8        -80.6151   30.2542  -71.5976 C.3       11 UNK         0.0289 
      9 C9        -79.2582   29.7032  -71.1807 C.ar      11 UNK        -0.0687 
     10 C10       -79.0990   28.3469  -70.8841 C.ar      11 UNK        -0.0823 
     11 C11       -77.8691   27.8613  -70.4279 C.ar      11 UNK        -0.0830 
     12 C12       -76.7955   28.7425  -70.2706 C.ar      11 UNK        -0.1021 
     13 C13       -76.9307   30.1015  -70.5871 C.ar      11 UNK        -0.0753 
     14 C14       -78.1683   30.5681  -71.0419 C.ar      11 UNK        -0.0933 
     15 C15       -75.7919   31.1112  -70.4120 C.3       11 UNK         0.0166 
     16 S16       -74.1066   30.4074  -70.3656 S.3       11 UNK        -0.2615 
     17 C17       -73.9924   29.6508  -72.0204 C.3       11 UNK        -0.0865 
     18 CA        -72.6041   29.8336  -72.6851 C.3       10 UNK         0.0862 
     19 C         -71.5402   28.8844  -72.0696 C.2       10 UNK         0.5551 
     20 N         -71.4861   27.6287  -72.4977 N.am      10 UNK        -0.7319 
     21 O         -70.7554   29.2911  -71.2165 O.2       10 UNK        -0.5018 
     22 N         -72.7070   29.6584  -74.1387 N.am      10 UNK        -0.4509 
     23 C         -71.9140   30.2490  -75.0389 C.2       10 UNK         0.4899 
     24 O         -71.0503   31.0809  -74.7547 O.2       10 UNK        -0.4839 
     25 CA        -72.1480   29.8410  -76.5048 C.3       9 UNK         0.0222 
     26 CB        -71.1586   30.5003  -77.4901 C.3       9 UNK        -0.1966 
     27 N         -72.1880   28.3848  -76.6836 N.am      9 UNK        -0.4218 
     28 C         -71.1924   27.5039  -76.4870 C.2       9 UNK         0.5020 
     29 O         -70.0598   27.8260  -76.1254 O.2       9 UNK        -0.5274 
     30 CA        -71.4876   26.0065  -76.7312 C.3       8 UNK         0.0270 
     31 CB        -71.1543   25.1668  -75.4852 C.3       8 UNK        -0.1976 
     32 N         -72.8702   25.7263  -77.1249 N.am      8 UNK        -0.4313 
     33 C         -73.4022   25.9466  -78.3343 C.2       8 UNK         0.5041 
     34 O         -72.7552   26.3262  -79.3102 O.2       8 UNK        -0.5577 
     35 CA        -74.9287   25.7840  -78.4499 C.3       7 UNK         0.0284 
     36 CB        -75.3077   24.3381  -78.8074 C.3       7 UNK        -0.1958 
     37 N         -75.6231   26.2043  -77.2259 N.am      7 UNK        -0.4454 
     38 C         -75.6822   27.4735  -76.7950 C.2       7 UNK         0.5089 
     39 O         -75.2100   28.4254  -77.4149 O.2       7 UNK        -0.5125 
     40 CA        -76.3144   27.7227  -75.4178 C.3       6 UNK         0.0408 
     41 CB        -77.8159   27.9985  -75.5412 C.3       6 UNK        -0.1791 
     42 N         -76.0956   26.6128  -74.4914 N.am      6 UNK        -0.4762 
     43 C         -74.9289   26.3681  -73.8829 C.2       6 UNK         0.5007 
     44 O         -73.9132   27.0413  -74.0643 O.2       6 UNK        -0.5032 
     45 CA        -74.8690   25.1425  -72.9505 C.3       5 UNK         0.0783 
     46 C46       -75.4852   25.4507  -71.5581 C.3       11 UNK        -0.0857 
     47 S47       -77.3162   25.3747  -71.5204 S.3       11 UNK        -0.2512 
     48 C48       -77.7164   26.3911  -70.0664 C.3       11 UNK         0.0225 
     49 N         -75.4555   23.9391  -73.5450 N.am      5 UNK        -0.4615 
     50 C         -75.1666   23.4023  -74.7358 C.2       4 UNK         0.5053 
     51 O         -74.2964   23.8339  -75.4909 O.2       4 UNK        -0.5105 
     52 CA        -76.0273   22.2047  -75.1817 C.3       4 UNK         0.0263 
     53 CB        -76.7028   21.4604  -74.0073 C.3       4 UNK        -0.1981 
     54 N         -77.0405   22.5664  -76.1828 N.am      4 UNK        -0.4224 
     55 C         -77.9421   23.5592  -76.1138 C.2       3 UNK         0.4895 
     56 O         -77.9631   24.4159  -75.2261 O.2       3 UNK        -0.5091 
     57 CA        -79.0131   23.6294  -77.2208 C.3       3 UNK         0.0250 
     58 CB        -79.0927   22.3819  -78.1310 C.3       3 UNK        -0.1996 
     59 N         -80.3163   23.9551  -76.6314 N.am      3 UNK        -0.4254 
     60 C         -80.9984   23.2267  -75.7288 C.2       2 UNK         0.5004 
     61 O         -80.7326   22.0586  -75.4396 O.2       2 UNK        -0.5226 
     62 CA        -82.1162   23.9645  -74.9724 C.3       2 UNK         0.0269 
     63 CB        -82.5813   23.2294  -73.7005 C.3       2 UNK        -0.1926 
     64 N         -81.6180   25.2915  -74.6171 N.am      2 UNK        -0.4687 
     65 C         -82.2903   26.4328  -74.7852 C.2       1 UNK         0.5165 
     66 O         -83.4939   26.4962  -75.0469 O.2       1 UNK        -0.5079 
     67 H67       -81.5946   29.8149  -78.1342 H         1 UNK         0.0900 
     68 H68       -81.8465   28.3836  -79.1364 H         1 UNK         0.0900 
     69 H69       -80.2106   28.9811  -78.8448 H         1 UNK         0.0900 
     70 H70       -81.8317   29.3721  -75.9586 H         1 UNK         0.2959 
     71 H71       -80.4157   27.4382  -74.5186 H         1 UNK         0.1079 
     72 H72       -81.8590   28.0663  -72.6017 H         1 UNK         0.0837 
     73 H73       -82.9459   28.9267  -73.6629 H         1 UNK         0.0837 
     74 H74       -80.6867   31.3046  -71.3112 H         1 UNK         0.0685 
     75 H75       -81.4146   29.7486  -71.0541 H         1 UNK         0.0685 
     76 H76       -79.9370   27.6717  -70.9886 H         1 UNK         0.1434 
     77 H77       -75.8586   28.3626  -69.8899 H         1 UNK         0.1329 
     78 H78       -78.2917   31.6185  -71.2689 H         1 UNK         0.1335 
     79 H79       -75.9587   31.6558  -69.4818 H         1 UNK         0.0680 
     80 H80       -75.8298   31.8518  -71.2126 H         1 UNK         0.0680 
     81 H81       -74.2596   28.5971  -71.9418 H         1 UNK         0.1032 
     82 H82       -74.7602   30.1004  -72.6523 H         1 UNK         0.1032 
     83 H83       -72.2799   30.8590  -72.4944 H         1 UNK         0.0461 
     84 H84       -70.7938   27.0018  -72.1212 H         1 UNK         0.3453 
     85 H85       -72.1583   27.3071  -73.1832 H         1 UNK         0.3453 
     86 H86       -73.3164   28.9066  -74.4412 H         1 UNK         0.2984 
     87 H87       -73.1448   30.2021  -76.7615 H         1 UNK         0.0554 
     88 H88       -71.3705   30.2094  -78.5189 H         1 UNK         0.0847 
     89 H89       -70.1245   30.2325  -77.2716 H         1 UNK         0.0847 
     90 H90       -71.2272   31.5877  -77.4408 H         1 UNK         0.0847 
     91 H91       -73.0844   28.0199  -76.9811 H         1 UNK         0.3141 
     92 H92       -70.8307   25.6834  -77.5413 H         1 UNK         0.0743 
     93 H93       -71.2974   24.1029  -75.6755 H         1 UNK         0.0784 
     94 H94       -70.1154   25.3031  -75.1820 H         1 UNK         0.0784 
     95 H95       -71.7809   25.4394  -74.6362 H         1 UNK         0.0784 
     96 H96       -73.4671   25.3194  -76.4087 H         1 UNK         0.3213 
     97 H97       -75.2657   26.4304  -79.2635 H         1 UNK         0.0855 
     98 H98       -74.8260   24.0320  -79.7370 H         1 UNK         0.0814 
     99 H99       -76.3822   24.2339  -78.9540 H         1 UNK         0.0814 
    100 H100      -74.9985   23.6314  -78.0377 H         1 UNK         0.0814 
    101 H101      -75.9865   25.4809  -76.6217 H         1 UNK         0.3105 
    102 H102      -75.8476   28.6173  -74.9993 H         1 UNK         0.0547 
    103 H103      -78.0132   28.8019  -76.2522 H         1 UNK         0.0837 
    104 H104      -78.3558   27.1156  -75.8836 H         1 UNK         0.0837 
    105 H105      -78.2336   28.3064  -74.5826 H         1 UNK         0.0837 
    106 H106      -76.8646   25.9646  -74.3478 H         1 UNK         0.3020 
    107 H107      -73.8080   24.9291  -72.8040 H         1 UNK         0.1245 
    108 H108      -75.1464   26.4195  -71.1881 H         1 UNK         0.0781 
    109 H109      -75.1177   24.7203  -70.8356 H         1 UNK         0.0781 
    110 H110      -76.9552   26.2564  -69.2962 H         1 UNK         0.0836 
    111 H111      -78.6483   26.0253  -69.6327 H         1 UNK         0.0836 
    112 H112      -76.2345   23.5498  -73.0338 H         1 UNK         0.3022 
    113 H113      -75.3433   21.5059  -75.6659 H         1 UNK         0.0747 
    114 H114      -77.1719   20.5385  -74.3515 H         1 UNK         0.0793 
    115 H115      -75.9761   21.1810  -73.2430 H         1 UNK         0.0793 
    116 H116      -77.4797   22.0589  -73.5294 H         1 UNK         0.0793 
    117 H117      -77.1012   21.9424  -76.9748 H         1 UNK         0.3047 
    118 H118      -78.7462   24.4824  -77.8467 H         1 UNK         0.0822 
    119 H119      -79.2683   21.4664  -77.5650 H         1 UNK         0.0807 
    120 H120      -78.1743   22.2486  -78.7038 H         1 UNK         0.0807 
    121 H121      -79.9024   22.4799  -78.8542 H         1 UNK         0.0807 
    122 H122      -80.6051   24.9198  -76.7802 H         1 UNK         0.2946 
    123 H123      -82.9606   24.0447  -75.6615 H         1 UNK         0.1144 
    124 H124      -82.9809   22.2436  -73.9418 H         1 UNK         0.0793 
    125 H125      -81.7612   23.0883  -72.9955 H         1 UNK         0.0793 
    126 H126      -83.3706   23.7822  -73.1909 H         1 UNK         0.0793 
    127 H127      -80.6255   25.3327  -74.4224 H         1 UNK         0.2896 
@<TRIPOS>BOND
     1    1    2 1    
     2    1   67 1    
     3    1   68 1    
     4    1   69 1    
     5    2    3 2    
     6    2    4 am   BACKBONE|DICT|INTERRES
     7    4    5 1    
     8    4   70 1    
     9    5    6 1    
    10    5   65 1    
    11    5   71 1    
    12    6    7 1    
    13    6   72 1    
    14    6   73 1    
    15    7    8 1    
    16    8    9 1    
    17    8   74 1    
    18    8   75 1    
    19    9   10 ar   
    20    9   14 ar   
    21   10   11 ar   
    22   10   76 1    
    23   11   12 ar   
    24   11   48 1    
    25   12   13 ar   
    26   12   77 1    
    27   13   14 ar   
    28   13   15 1    
    29   14   78 1    
    30   15   16 1    
    31   15   79 1    
    32   15   80 1    
    33   16   17 1    
    34   17   18 1    
    35   17   81 1    
    36   17   82 1    
    37   18   19 1    
    38   18   22 1    
    39   18   83 1    
    40   19   20 am   BACKBONE|DICT|INTERRES
    41   19   21 2    
    42   20   84 1    
    43   20   85 1    
    44   22   23 am   BACKBONE|DICT|INTERRES
    45   22   86 1    
    46   23   24 2    
    47   23   25 1    
    48   25   26 1    
    49   25   27 1    
    50   25   87 1    
    51   26   88 1    
    52   26   89 1    
    53   26   90 1    
    54   27   28 am   BACKBONE|DICT|INTERRES
    55   27   91 1    
    56   28   29 2    
    57   28   30 1    
    58   30   31 1    
    59   30   32 1    
    60   30   92 1    
    61   31   93 1    
    62   31   94 1    
    63   31   95 1    
    64   32   33 am   BACKBONE|DICT|INTERRES
    65   32   96 1    
    66   33   34 2    
    67   33   35 1    
    68   35   36 1    
    69   35   37 1    
    70   35   97 1    
    71   36   98 1    
    72   36   99 1    
    73   36  100 1    
    74   37   38 am   BACKBONE|DICT|INTERRES
    75   37  101 1    
    76   38   39 2    
    77   38   40 1    
    78   40   41 1    
    79   40   42 1    
    80   40  102 1    
    81   41  103 1    
    82   41  104 1    
    83   41  105 1    
    84   42   43 am   BACKBONE|DICT|INTERRES
    85   42  106 1    
    86   43   44 2    
    87   43   45 1    
    88   45   46 1    
    89   45   49 1    
    90   45  107 1    
    91   46   47 1    
    92   46  108 1    
    93   46  109 1    
    94   47   48 1    
    95   48  110 1    
    96   48  111 1    
    97   49   50 am   BACKBONE|DICT|INTERRES
    98   49  112 1    
    99   50   51 2    
   100   50   52 1    
   101   52   53 1    
   102   52   54 1    
   103   52  113 1    
   104   53  114 1    
   105   53  115 1    
   106   53  116 1    
   107   54   55 am   BACKBONE|DICT|INTERRES
   108   54  117 1    
   109   55   56 2    
   110   55   57 1    
   111   57   58 1    
   112   57   59 1    
   113   57  118 1    
   114   58  119 1    
   115   58  120 1    
   116   58  121 1    
   117   59   60 am   BACKBONE|DICT|INTERRES
   118   59  122 1    
   119   60   61 2    
   120   60   62 1    
   121   62   63 1    
   122   62   64 1    
   123   62  123 1    
   124   63  124 1    
   125   63  125 1    
   126   63  126 1    
   127   64   65 am   BACKBONE|DICT|INTERRES
   128   64  127 1    
   129   65   66 2    
@<TRIPOS>SUBSTRUCTURE
     1 UNK         1 GROUP             0       ****    0 ROOT    
