@<TRIPOS>MOLECULE
3R135
127   129    1
SMALL
USER_CHARGES


@<TRIPOS>ATOM
      1 CA        -82.9786   32.0835  -73.6863 C.3       0 UNK        -0.1998 
      2 C         -82.1245   30.8289  -73.5812 C.2       0 UNK         0.4909 
      3 O         -81.3375   30.5466  -74.4855 O.2       0 UNK        -0.5240 
      4 N         -82.2670   30.0801  -72.4806 N.am      1 UNK        -0.4739 
      5 CA        -81.5595   28.8193  -72.2293 C.3       1 UNK         0.0864 
      6 C6        -81.6269   28.4077  -70.7369 C.3       11 UNK        -0.0881 
      7 S7        -80.8274   29.6567  -69.6658 S.3       11 UNK        -0.2682 
      8 C8        -79.2782   28.8378  -69.1501 C.3       11 UNK         0.0289 
      9 C9        -78.5094   28.2185  -70.3114 C.ar      11 UNK        -0.0687 
     10 C10       -78.2223   26.8501  -70.3038 C.ar      11 UNK        -0.0823 
     11 C11       -77.5521   26.2614  -71.3784 C.ar      11 UNK        -0.0830 
     12 C12       -77.1951   27.0437  -72.4800 C.ar      11 UNK        -0.1021 
     13 C13       -77.4677   28.4135  -72.4969 C.ar      11 UNK        -0.0753 
     14 C14       -78.0993   29.0012  -71.3963 C.ar      11 UNK        -0.0933 
     15 C15       -77.1229   29.2475  -73.7209 C.3       11 UNK         0.0166 
     16 S16       -75.3492   29.6447  -73.8034 S.3       11 UNK        -0.2615 
     17 C17       -75.3979   30.9239  -75.1071 C.3       11 UNK        -0.0865 
     18 CA        -74.0099   31.3605  -75.6454 C.3       10 UNK         0.0862 
     19 C         -73.1829   32.1833  -74.6111 C.2       10 UNK         0.5551 
     20 N         -71.9222   31.8604  -74.3440 N.am      10 UNK        -0.7319 
     21 O         -73.6918   33.1523  -74.0527 O.2       10 UNK        -0.5018 
     22 N         -73.2908   30.2328  -76.2539 N.am      10 UNK        -0.4509 
     23 C         -72.4184   30.3330  -77.2644 C.2       10 UNK         0.4899 
     24 O         -72.1865   31.3813  -77.8690 O.2       10 UNK        -0.4839 
     25 CA        -71.6742   29.0378  -77.6447 C.3       9 UNK         0.0222 
     26 CB        -70.4515   29.2896  -78.5526 C.3       9 UNK        -0.1966 
     27 N         -71.2968   28.2305  -76.4761 N.am      9 UNK        -0.4218 
     28 C         -70.5124   28.6048  -75.4498 C.2       9 UNK         0.5020 
     29 O         -70.0063   29.7241  -75.3585 O.2       9 UNK        -0.5274 
     30 CA        -70.2787   27.6007  -74.3012 C.3       8 UNK         0.0270 
     31 CB        -70.8272   28.1657  -72.9785 C.3       8 UNK        -0.1976 
     32 N         -70.8828   26.2873  -74.5302 N.am      8 UNK        -0.4313 
     33 C         -70.4221   25.3441  -75.3633 C.2       8 UNK         0.5041 
     34 O         -69.3514   25.4243  -75.9655 O.2       8 UNK        -0.5577 
     35 CA        -71.3383   24.1266  -75.5968 C.3       7 UNK         0.0284 
     36 CB        -70.8950   22.9403  -74.7262 C.3       7 UNK        -0.1958 
     37 N         -72.7566   24.4100  -75.3410 N.am      7 UNK        -0.4454 
     38 C         -73.5111   25.2892  -76.0122 C.2       7 UNK         0.5089 
     39 O         -73.0938   25.9316  -76.9769 O.2       7 UNK        -0.5125 
     40 CA        -74.9328   25.5421  -75.4703 C.3       6 UNK         0.0408 
     41 CB        -75.7304   26.5206  -76.3518 C.3       6 UNK        -0.1791 
     42 N         -75.7269   24.3255  -75.2597 N.am      6 UNK        -0.4762 
     43 C         -75.5600   23.4328  -74.2706 C.2       6 UNK         0.5007 
     44 O         -74.6163   23.4794  -73.4794 O.2       6 UNK        -0.5032 
     45 CA        -76.6103   22.3129  -74.1086 C.3       5 UNK         0.0783 
     46 C46       -77.2736   22.3331  -72.7052 C.3       11 UNK        -0.0857 
     47 S47       -78.3119   23.8028  -72.3878 S.3       11 UNK        -0.2512 
     48 C48       -77.1918   24.7864  -71.3468 C.3       11 UNK         0.0225 
     49 N         -77.6155   22.3336  -75.1754 N.am      5 UNK        -0.4615 
     50 C         -77.6007   21.5350  -76.2492 C.2       4 UNK         0.5053 
     51 O         -76.7261   20.6968  -76.4688 O.2       4 UNK        -0.5105 
     52 CA        -78.7586   21.6883  -77.2503 C.3       4 UNK         0.0263 
     53 CB        -79.9039   20.7274  -76.8919 C.3       4 UNK        -0.1981 
     54 N         -79.2870   23.0518  -77.3492 N.am      4 UNK        -0.4224 
     55 C         -78.6051   24.1072  -77.8174 C.2       3 UNK         0.4895 
     56 O         -77.4289   24.0567  -78.1753 O.2       3 UNK        -0.5091 
     57 CA        -79.3587   25.4453  -77.9017 C.3       3 UNK         0.0250 
     58 CB        -79.9367   25.6456  -79.3120 C.3       3 UNK        -0.1996 
     59 N         -80.4352   25.5699  -76.9134 N.am      3 UNK        -0.4254 
     60 C         -80.2265   25.7762  -75.6071 C.2       2 UNK         0.5004 
     61 O         -79.1077   25.8627  -75.0983 O.2       2 UNK        -0.5226 
     62 CA        -81.4692   25.8932  -74.7198 C.3       2 UNK         0.0269 
     63 CB        -81.8383   24.5395  -74.0892 C.3       2 UNK        -0.1926 
     64 N         -81.1888   26.8760  -73.6778 N.am      2 UNK        -0.4687 
     65 C         -82.0945   27.7060  -73.1507 C.2       1 UNK         0.5165 
     66 O         -83.3064   27.6251  -73.3712 O.2       1 UNK        -0.5079 
     67 H67       -83.6157   32.2174  -72.8122 H         1 UNK         0.0900 
     68 H68       -83.6179   32.0290  -74.5669 H         1 UNK         0.0900 
     69 H69       -82.3427   32.9634  -73.7801 H         1 UNK         0.0900 
     70 H70       -82.9338   30.3529  -71.7731 H         1 UNK         0.2959 
     71 H71       -80.5151   28.9806  -72.4966 H         1 UNK         0.1079 
     72 H72       -81.1566   27.4356  -70.5778 H         1 UNK         0.0837 
     73 H73       -82.6647   28.2930  -70.4182 H         1 UNK         0.0837 
     74 H74       -79.5219   28.0826  -68.4011 H         1 UNK         0.0685 
     75 H75       -78.6411   29.5694  -68.6516 H         1 UNK         0.0685 
     76 H76       -78.5200   26.2410  -69.4610 H         1 UNK         0.1434 
     77 H77       -76.7117   26.5825  -73.3290 H         1 UNK         0.1329 
     78 H78       -78.3188   30.0603  -71.4026 H         1 UNK         0.1335 
     79 H79       -77.7011   30.1730  -73.7158 H         1 UNK         0.0680 
     80 H80       -77.4161   28.7099  -74.6239 H         1 UNK         0.0680 
     81 H81       -75.9959   30.5436  -75.9370 H         1 UNK         0.1032 
     82 H82       -75.9461   31.7883  -74.7272 H         1 UNK         0.1032 
     83 H83       -74.2186   32.0724  -76.4463 H         1 UNK         0.0461 
     84 H84       -71.4601   31.0946  -74.8191 H         1 UNK         0.3453 
     85 H85       -71.4085   32.4139  -73.6774 H         1 UNK         0.3453 
     86 H86       -73.4055   29.3423  -75.7938 H         1 UNK         0.2984 
     87 H87       -72.3858   28.4359  -78.2117 H         1 UNK         0.0554 
     88 H88       -69.9577   28.3555  -78.8204 H         1 UNK         0.0847 
     89 H89       -69.7143   29.9326  -78.0708 H         1 UNK         0.0847 
     90 H90       -70.7479   29.7759  -79.4828 H         1 UNK         0.0847 
     91 H91       -71.6978   27.2978  -76.4647 H         1 UNK         0.3141 
     92 H92       -69.1992   27.4713  -74.1998 H         1 UNK         0.0743 
     93 H93       -70.3576   29.1197  -72.7341 H         1 UNK         0.0784 
     94 H94       -71.9035   28.3379  -73.0266 H         1 UNK         0.0784 
     95 H95       -70.6304   27.4907  -72.1453 H         1 UNK         0.0784 
     96 H96       -71.7610   26.1093  -74.0651 H         1 UNK         0.3213 
     97 H97       -71.2401   23.8416  -76.6465 H         1 UNK         0.0855 
     98 H98       -70.9953   23.1598  -73.6625 H         1 UNK         0.0814 
     99 H99       -69.8493   22.6897  -74.9109 H         1 UNK         0.0814 
    100 H100      -71.4834   22.0482  -74.9417 H         1 UNK         0.0814 
    101 H101      -73.1971   23.9354  -74.5548 H         1 UNK         0.3105 
    102 H102      -74.8005   26.0221  -74.4990 H         1 UNK         0.0547 
    103 H103      -76.7167   26.7191  -75.9345 H         1 UNK         0.0837 
    104 H104      -75.2200   27.4809  -76.4352 H         1 UNK         0.0837 
    105 H105      -75.8642   26.1339  -77.3624 H         1 UNK         0.0837 
    106 H106      -76.4940   24.1808  -75.9024 H         1 UNK         0.3020 
    107 H107      -76.0429   21.3812  -74.1697 H         1 UNK         0.1245 
    108 H108      -76.5207   22.2353  -71.9206 H         1 UNK         0.0781 
    109 H109      -77.9112   21.4541  -72.5986 H         1 UNK         0.0781 
    110 H110      -76.1614   24.6742  -71.6834 H         1 UNK         0.0836 
    111 H111      -77.2205   24.3995  -70.3270 H         1 UNK         0.0836 
    112 H112      -78.3640   23.0036  -75.0637 H         1 UNK         0.3022 
    113 H113      -78.3756   21.4103  -78.2347 H         1 UNK         0.0747 
    114 H114      -80.6933   20.7516  -77.6433 H         1 UNK         0.0793 
    115 H115      -79.5463   19.6982  -76.8347 H         1 UNK         0.0793 
    116 H116      -80.3496   20.9711  -75.9265 H         1 UNK         0.0793 
    117 H117      -80.2503   23.1880  -77.0807 H         1 UNK         0.3047 
    118 H118      -78.6322   26.2403  -77.7180 H         1 UNK         0.0822 
    119 H119      -79.1517   25.5840  -80.0673 H         1 UNK         0.0807 
    120 H120      -80.4043   26.6251  -79.4140 H         1 UNK         0.0807 
    121 H121      -80.6833   24.8887  -79.5561 H         1 UNK         0.0807 
    122 H122      -81.3820   25.5136  -77.2616 H         1 UNK         0.2946 
    123 H123      -82.3012   26.2432  -75.3358 H         1 UNK         0.1144 
    124 H124      -82.0312   23.7877  -74.8553 H         1 UNK         0.0793 
    125 H125      -82.7390   24.6199  -73.4806 H         1 UNK         0.0793 
    126 H126      -81.0395   24.1609  -73.4520 H         1 UNK         0.0793 
    127 H127      -80.2024   26.9922  -73.4747 H         1 UNK         0.2896 
@<TRIPOS>BOND
     1    1    2 1    
     2    1   67 1    
     3    1   68 1    
     4    1   69 1    
     5    2    3 2    
     6    2    4 am   BACKBONE|DICT|INTERRES
     7    4    5 1    
     8    4   70 1    
     9    5    6 1    
    10    5   65 1    
    11    5   71 1    
    12    6    7 1    
    13    6   72 1    
    14    6   73 1    
    15    7    8 1    
    16    8    9 1    
    17    8   74 1    
    18    8   75 1    
    19    9   10 ar   
    20    9   14 ar   
    21   10   11 ar   
    22   10   76 1    
    23   11   12 ar   
    24   11   48 1    
    25   12   13 ar   
    26   12   77 1    
    27   13   14 ar   
    28   13   15 1    
    29   14   78 1    
    30   15   16 1    
    31   15   79 1    
    32   15   80 1    
    33   16   17 1    
    34   17   18 1    
    35   17   81 1    
    36   17   82 1    
    37   18   19 1    
    38   18   22 1    
    39   18   83 1    
    40   19   20 am   BACKBONE|DICT|INTERRES
    41   19   21 2    
    42   20   84 1    
    43   20   85 1    
    44   22   23 am   BACKBONE|DICT|INTERRES
    45   22   86 1    
    46   23   24 2    
    47   23   25 1    
    48   25   26 1    
    49   25   27 1    
    50   25   87 1    
    51   26   88 1    
    52   26   89 1    
    53   26   90 1    
    54   27   28 am   BACKBONE|DICT|INTERRES
    55   27   91 1    
    56   28   29 2    
    57   28   30 1    
    58   30   31 1    
    59   30   32 1    
    60   30   92 1    
    61   31   93 1    
    62   31   94 1    
    63   31   95 1    
    64   32   33 am   BACKBONE|DICT|INTERRES
    65   32   96 1    
    66   33   34 2    
    67   33   35 1    
    68   35   36 1    
    69   35   37 1    
    70   35   97 1    
    71   36   98 1    
    72   36   99 1    
    73   36  100 1    
    74   37   38 am   BACKBONE|DICT|INTERRES
    75   37  101 1    
    76   38   39 2    
    77   38   40 1    
    78   40   41 1    
    79   40   42 1    
    80   40  102 1    
    81   41  103 1    
    82   41  104 1    
    83   41  105 1    
    84   42   43 am   BACKBONE|DICT|INTERRES
    85   42  106 1    
    86   43   44 2    
    87   43   45 1    
    88   45   46 1    
    89   45   49 1    
    90   45  107 1    
    91   46   47 1    
    92   46  108 1    
    93   46  109 1    
    94   47   48 1    
    95   48  110 1    
    96   48  111 1    
    97   49   50 am   BACKBONE|DICT|INTERRES
    98   49  112 1    
    99   50   51 2    
   100   50   52 1    
   101   52   53 1    
   102   52   54 1    
   103   52  113 1    
   104   53  114 1    
   105   53  115 1    
   106   53  116 1    
   107   54   55 am   BACKBONE|DICT|INTERRES
   108   54  117 1    
   109   55   56 2    
   110   55   57 1    
   111   57   58 1    
   112   57   59 1    
   113   57  118 1    
   114   58  119 1    
   115   58  120 1    
   116   58  121 1    
   117   59   60 am   BACKBONE|DICT|INTERRES
   118   59  122 1    
   119   60   61 2    
   120   60   62 1    
   121   62   63 1    
   122   62   64 1    
   123   62  123 1    
   124   63  124 1    
   125   63  125 1    
   126   63  126 1    
   127   64   65 am   BACKBONE|DICT|INTERRES
   128   64  127 1    
   129   65   66 2    
@<TRIPOS>SUBSTRUCTURE
     1 UNK         1 GROUP             0       ****    0 ROOT    
