@<TRIPOS>MOLECULE
3R135
127   129    1
SMALL
USER_CHARGES


@<TRIPOS>ATOM
      1 CA        -82.5605   27.1885  -70.1229 C.3       0 UNK        -0.1998 
      2 C         -83.0313   27.1749  -71.5695 C.2       0 UNK         0.4909 
      3 O         -84.1797   26.8216  -71.8376 O.2       0 UNK        -0.5240 
      4 N         -82.1505   27.5606  -72.5021 N.am      1 UNK        -0.4739 
      5 CA        -82.4197   27.6365  -73.9461 C.3       1 UNK         0.0864 
      6 C6        -81.2757   28.3416  -74.7207 C.3       11 UNK        -0.0881 
      7 S7        -80.8176   29.9785  -74.0565 S.3       11 UNK        -0.2682 
      8 C8        -79.0352   30.0323  -74.4585 C.3       11 UNK         0.0289 
      9 C9        -78.1211   29.5485  -73.3318 C.ar      11 UNK        -0.0687 
     10 C10       -78.4299   28.4201  -72.5621 C.ar      11 UNK        -0.0823 
     11 C11       -77.5973   28.0169  -71.5149 C.ar      11 UNK        -0.0830 
     12 C12       -76.4270   28.7338  -71.2531 C.ar      11 UNK        -0.1021 
     13 C13       -76.0882   29.8456  -72.0286 C.ar      11 UNK        -0.0753 
     14 C14       -76.9380   30.2467  -73.0642 C.ar      11 UNK        -0.0933 
     15 C15       -74.8203   30.6292  -71.7259 C.3       11 UNK         0.0166 
     16 S16       -73.3442   29.7975  -72.3876 S.3       11 UNK        -0.2615 
     17 C17       -72.0492   31.0124  -71.9579 C.3       11 UNK        -0.0865 
     18 CA        -71.5484   31.8115  -73.1998 C.3       10 UNK         0.0862 
     19 C         -70.6281   33.0225  -72.8439 C.2       10 UNK         0.5551 
     20 N         -70.9117   33.7479  -71.7695 N.am      10 UNK        -0.7319 
     21 O         -69.6860   33.3544  -73.5622 O.2       10 UNK        -0.5018 
     22 N         -70.9856   30.9345  -74.2430 N.am      10 UNK        -0.4509 
     23 C         -69.8657   30.2066  -74.1497 C.2       10 UNK         0.4899 
     24 O         -69.1642   30.1329  -73.1387 O.2       10 UNK        -0.4839 
     25 CA        -69.4887   29.3870  -75.3948 C.3       9 UNK         0.0222 
     26 CB        -67.9641   29.2319  -75.5462 C.3       9 UNK        -0.1966 
     27 N         -70.1016   28.0619  -75.3206 N.am      9 UNK        -0.4218 
     28 C         -71.3804   27.7958  -75.6131 C.2       9 UNK         0.5020 
     29 O         -72.1734   28.6351  -76.0482 O.2       9 UNK        -0.5274 
     30 CA        -71.8443   26.3553  -75.3370 C.3       8 UNK         0.0270 
     31 CB        -72.2157   26.1879  -73.8541 C.3       8 UNK        -0.1976 
     32 N         -72.9877   25.9794  -76.1732 N.am      8 UNK        -0.4313 
     33 C         -72.8965   25.6995  -77.4827 C.2       8 UNK         0.5041 
     34 O         -71.8257   25.6802  -78.0935 O.2       8 UNK        -0.5577 
     35 CA        -74.1850   25.3532  -78.2571 C.3       7 UNK         0.0284 
     36 CB        -74.2193   23.8531  -78.5954 C.3       7 UNK        -0.1958 
     37 N         -75.4217   25.7064  -77.5602 N.am      7 UNK        -0.4454 
     38 C         -75.8744   26.9520  -77.3669 C.2       7 UNK         0.5089 
     39 O         -75.3380   27.9563  -77.8342 O.2       7 UNK        -0.5125 
     40 CA        -77.1345   27.1057  -76.4935 C.3       6 UNK         0.0408 
     41 CB        -78.3834   27.2031  -77.3836 C.3       6 UNK        -0.1791 
     42 N         -77.3227   26.0268  -75.5164 N.am      6 UNK        -0.4762 
     43 C         -76.4604   25.7022  -74.5399 C.2       6 UNK         0.5007 
     44 O         -75.3937   26.2842  -74.3551 O.2       6 UNK        -0.5032 
     45 CA        -76.8079   24.4651  -73.6927 C.3       5 UNK         0.0783 
     46 C46       -77.8399   24.7728  -72.5789 C.3       11 UNK        -0.0857 
     47 S47       -77.0328   25.3369  -71.0449 S.3       11 UNK        -0.2512 
     48 C48       -77.9793   26.8346  -70.6364 C.3       11 UNK         0.0225 
     49 N         -77.2586   23.3759  -74.5596 N.am      5 UNK        -0.4615 
     50 C         -76.4414   22.5390  -75.2123 C.2       4 UNK         0.5053 
     51 O         -75.2157   22.5597  -75.1064 O.2       4 UNK        -0.5105 
     52 CA        -77.0945   21.5036  -76.1458 C.3       4 UNK         0.0263 
     53 CB        -77.2837   20.1660  -75.4126 C.3       4 UNK        -0.1981 
     54 N         -78.3824   21.9420  -76.6900 N.am      4 UNK        -0.4224 
     55 C         -78.5306   22.9381  -77.5743 C.2       3 UNK         0.4895 
     56 O         -77.5930   23.5748  -78.0533 O.2       3 UNK        -0.5091 
     57 CA        -79.9736   23.3203  -77.9474 C.3       3 UNK         0.0250 
     58 CB        -80.4895   22.4280  -79.0875 C.3       3 UNK        -0.1996 
     59 N         -80.9200   23.2818  -76.8233 N.am      3 UNK        -0.4254 
     60 C         -80.7920   23.9917  -75.6940 C.2       2 UNK         0.5004 
     61 O         -79.8049   24.6818  -75.4260 O.2       2 UNK        -0.5226 
     62 CA        -81.9320   23.8977  -74.6683 C.3       2 UNK         0.0269 
     63 CB        -81.6093   22.8353  -73.6057 C.3       2 UNK        -0.1926 
     64 N         -82.1004   25.1955  -74.0138 N.am      2 UNK        -0.4687 
     65 C         -82.6691   26.2595  -74.5987 C.2       1 UNK         0.5165 
     66 O         -83.3213   26.1941  -75.6422 O.2       1 UNK        -0.5079 
     67 H67       -82.5891   26.1806  -69.7098 H         1 UNK         0.0900 
     68 H68       -83.2133   27.8215  -69.5224 H         1 UNK         0.0900 
     69 H69       -81.5428   27.5665  -70.0273 H         1 UNK         0.0900 
     70 H70       -81.2483   27.9049  -72.2116 H         1 UNK         0.2959 
     71 H71       -83.3329   28.2213  -74.0770 H         1 UNK         0.1079 
     72 H72       -81.5609   28.4843  -75.7652 H         1 UNK         0.0837 
     73 H73       -80.3900   27.7040  -74.7416 H         1 UNK         0.0837 
     74 H74       -78.8395   29.4558  -75.3621 H         1 UNK         0.0685 
     75 H75       -78.7943   31.0670  -74.7068 H         1 UNK         0.0685 
     76 H76       -79.3274   27.8592  -72.7621 H         1 UNK         0.1434 
     77 H77       -75.7772   28.4256  -70.4451 H         1 UNK         0.1329 
     78 H78       -76.6792   31.1123  -73.6587 H         1 UNK         0.1335 
     79 H79       -74.7150   30.7500  -70.6466 H         1 UNK         0.0680 
     80 H80       -74.8853   31.6343  -72.1459 H         1 UNK         0.0680 
     81 H81       -71.2217   30.4840  -71.4823 H         1 UNK         0.1032 
     82 H82       -72.4475   31.6779  -71.1919 H         1 UNK         0.1032 
     83 H83       -72.4226   32.2688  -73.6646 H         1 UNK         0.0461 
     84 H84       -70.3291   34.5419  -71.5532 H         1 UNK         0.3453 
     85 H85       -71.6987   33.5332  -71.1789 H         1 UNK         0.3453 
     86 H86       -71.5146   30.8828  -75.1026 H         1 UNK         0.2984 
     87 H87       -69.8577   29.9078  -76.2813 H         1 UNK         0.0554 
     88 H88       -67.7088   28.7063  -76.4664 H         1 UNK         0.0847 
     89 H89       -67.5232   28.6823  -74.7135 H         1 UNK         0.0847 
     90 H90       -67.4773   30.2074  -75.5855 H         1 UNK         0.0847 
     91 H91       -69.5305   27.3256  -74.9307 H         1 UNK         0.3141 
     92 H92       -71.0212   25.6738  -75.5630 H         1 UNK         0.0743 
     93 H93       -72.9766   26.9068  -73.5474 H         1 UNK         0.0784 
     94 H94       -72.5966   25.1876  -73.6471 H         1 UNK         0.0784 
     95 H95       -71.3487   26.3457  -73.2117 H         1 UNK         0.0784 
     96 H96       -73.9027   26.0393  -75.7374 H         1 UNK         0.3213 
     97 H97       -74.1558   25.9132  -79.1942 H         1 UNK         0.0855 
     98 H98       -74.2725   23.2388  -77.6959 H         1 UNK         0.0814 
     99 H99       -73.3247   23.5535  -79.1430 H         1 UNK         0.0814 
    100 H100      -75.0770   23.6065  -79.2216 H         1 UNK         0.0814 
    101 H101      -75.9844   24.9407  -77.2107 H         1 UNK         0.3105 
    102 H102      -77.0293   28.0355  -75.9321 H         1 UNK         0.0547 
    103 H103      -78.3133   28.0550  -78.0612 H         1 UNK         0.0837 
    104 H104      -78.5070   26.3097  -77.9960 H         1 UNK         0.0837 
    105 H105      -79.2906   27.3298  -76.7954 H         1 UNK         0.0837 
    106 H106      -78.1910   25.4977  -75.5852 H         1 UNK         0.3020 
    107 H107      -75.8801   24.1387  -73.2154 H         1 UNK         0.1245 
    108 H108      -78.3863   23.8662  -72.3144 H         1 UNK         0.0781 
    109 H109      -78.5988   25.4823  -72.9128 H         1 UNK         0.0781 
    110 H110      -77.7909   27.0904  -69.5926 H         1 UNK         0.0836 
    111 H111      -79.0474   26.6226  -70.7037 H         1 UNK         0.0836 
    112 H112      -78.2494   23.3494  -74.7612 H         1 UNK         0.3022 
    113 H113      -76.4117   21.3419  -76.9830 H         1 UNK         0.0747 
    114 H114      -77.6716   19.3976  -76.0815 H         1 UNK         0.0793 
    115 H115      -76.3344   19.8001  -75.0184 H         1 UNK         0.0793 
    116 H116      -77.9714   20.2592  -74.5710 H         1 UNK         0.0793 
    117 H117      -79.2096   21.4734  -76.3502 H         1 UNK         0.3047 
    118 H118      -79.9490   24.3495  -78.3106 H         1 UNK         0.0822 
    119 H119      -81.4648   22.7615  -79.4428 H         1 UNK         0.0807 
    120 H120      -80.5824   21.3864  -78.7776 H         1 UNK         0.0807 
    121 H121      -79.8108   22.4547  -79.9414 H         1 UNK         0.0807 
    122 H122      -81.7530   22.7262  -76.9572 H         1 UNK         0.2946 
    123 H123      -82.8602   23.6280  -75.1776 H         1 UNK         0.1144 
    124 H124      -81.4985   21.8491  -74.0585 H         1 UNK         0.0793 
    125 H125      -82.4064   22.7622  -72.8655 H         1 UNK         0.0793 
    126 H126      -80.6817   23.0578  -73.0769 H         1 UNK         0.0793 
    127 H127      -81.5676   25.3506  -73.1715 H         1 UNK         0.2896 
@<TRIPOS>BOND
     1    1    2 1    
     2    1   67 1    
     3    1   68 1    
     4    1   69 1    
     5    2    3 2    
     6    2    4 am   BACKBONE|DICT|INTERRES
     7    4    5 1    
     8    4   70 1    
     9    5    6 1    
    10    5   65 1    
    11    5   71 1    
    12    6    7 1    
    13    6   72 1    
    14    6   73 1    
    15    7    8 1    
    16    8    9 1    
    17    8   74 1    
    18    8   75 1    
    19    9   10 ar   
    20    9   14 ar   
    21   10   11 ar   
    22   10   76 1    
    23   11   12 ar   
    24   11   48 1    
    25   12   13 ar   
    26   12   77 1    
    27   13   14 ar   
    28   13   15 1    
    29   14   78 1    
    30   15   16 1    
    31   15   79 1    
    32   15   80 1    
    33   16   17 1    
    34   17   18 1    
    35   17   81 1    
    36   17   82 1    
    37   18   19 1    
    38   18   22 1    
    39   18   83 1    
    40   19   20 am   BACKBONE|DICT|INTERRES
    41   19   21 2    
    42   20   84 1    
    43   20   85 1    
    44   22   23 am   BACKBONE|DICT|INTERRES
    45   22   86 1    
    46   23   24 2    
    47   23   25 1    
    48   25   26 1    
    49   25   27 1    
    50   25   87 1    
    51   26   88 1    
    52   26   89 1    
    53   26   90 1    
    54   27   28 am   BACKBONE|DICT|INTERRES
    55   27   91 1    
    56   28   29 2    
    57   28   30 1    
    58   30   31 1    
    59   30   32 1    
    60   30   92 1    
    61   31   93 1    
    62   31   94 1    
    63   31   95 1    
    64   32   33 am   BACKBONE|DICT|INTERRES
    65   32   96 1    
    66   33   34 2    
    67   33   35 1    
    68   35   36 1    
    69   35   37 1    
    70   35   97 1    
    71   36   98 1    
    72   36   99 1    
    73   36  100 1    
    74   37   38 am   BACKBONE|DICT|INTERRES
    75   37  101 1    
    76   38   39 2    
    77   38   40 1    
    78   40   41 1    
    79   40   42 1    
    80   40  102 1    
    81   41  103 1    
    82   41  104 1    
    83   41  105 1    
    84   42   43 am   BACKBONE|DICT|INTERRES
    85   42  106 1    
    86   43   44 2    
    87   43   45 1    
    88   45   46 1    
    89   45   49 1    
    90   45  107 1    
    91   46   47 1    
    92   46  108 1    
    93   46  109 1    
    94   47   48 1    
    95   48  110 1    
    96   48  111 1    
    97   49   50 am   BACKBONE|DICT|INTERRES
    98   49  112 1    
    99   50   51 2    
   100   50   52 1    
   101   52   53 1    
   102   52   54 1    
   103   52  113 1    
   104   53  114 1    
   105   53  115 1    
   106   53  116 1    
   107   54   55 am   BACKBONE|DICT|INTERRES
   108   54  117 1    
   109   55   56 2    
   110   55   57 1    
   111   57   58 1    
   112   57   59 1    
   113   57  118 1    
   114   58  119 1    
   115   58  120 1    
   116   58  121 1    
   117   59   60 am   BACKBONE|DICT|INTERRES
   118   59  122 1    
   119   60   61 2    
   120   60   62 1    
   121   62   63 1    
   122   62   64 1    
   123   62  123 1    
   124   63  124 1    
   125   63  125 1    
   126   63  126 1    
   127   64   65 am   BACKBONE|DICT|INTERRES
   128   64  127 1    
   129   65   66 2    
@<TRIPOS>SUBSTRUCTURE
     1 UNK         1 GROUP             0       ****    0 ROOT    
