@<TRIPOS>MOLECULE
3R135
127   129    1
SMALL
USER_CHARGES


@<TRIPOS>ATOM
      1 CA        -84.7534   24.5736  -69.8732 C.3       0 UNK        -0.1998 
      2 C         -83.9447   25.1668  -71.0171 C.2       0 UNK         0.4909 
      3 O         -84.5086   25.8394  -71.8806 O.2       0 UNK        -0.5240 
      4 N         -82.6264   24.9251  -71.0286 N.am      1 UNK        -0.4739 
      5 CA        -81.6983   25.3949  -72.0658 C.3       1 UNK         0.0864 
      6 C6        -80.2304   25.2895  -71.5803 C.3       11 UNK        -0.0881 
      7 S7        -79.0805   26.3359  -72.5333 S.3       11 UNK        -0.2682 
      8 C8        -79.0476   27.8348  -71.5018 C.3       11 UNK         0.0289 
      9 C9        -78.0669   28.8479  -72.0663 C.ar      11 UNK        -0.0687 
     10 C10       -78.4913   29.8061  -72.9901 C.ar      11 UNK        -0.0823 
     11 C11       -77.5758   30.6989  -73.5561 C.ar      11 UNK        -0.0830 
     12 C12       -76.2282   30.6297  -73.1891 C.ar      11 UNK        -0.1021 
     13 C13       -75.7966   29.6854  -72.2519 C.ar      11 UNK        -0.0753 
     14 C14       -76.7236   28.8051  -71.6869 C.ar      11 UNK        -0.0933 
     15 C15       -74.3207   29.5509  -71.9090 C.3       11 UNK         0.0166 
     16 S16       -73.5877   31.0912  -71.2846 S.3       11 UNK        -0.2615 
     17 C17       -71.9009   30.5222  -70.8783 C.3       11 UNK        -0.0865 
     18 CA        -70.9253   30.6366  -72.0785 C.3       10 UNK         0.0862 
     19 C         -69.4488   30.5782  -71.6018 C.2       10 UNK         0.5551 
     20 N         -68.8540   31.7216  -71.2911 N.am      10 UNK        -0.7319 
     21 O         -68.8541   29.5097  -71.4713 O.2       10 UNK        -0.5018 
     22 N         -71.1962   29.6090  -73.0944 N.am      10 UNK        -0.4509 
     23 C         -70.8306   29.6901  -74.3762 C.2       10 UNK         0.4899 
     24 O         -70.3205   30.6957  -74.8720 O.2       10 UNK        -0.4839 
     25 CA        -71.0578   28.4617  -75.2784 C.3       9 UNK         0.0222 
     26 CB        -69.7739   27.6154  -75.3757 C.3       9 UNK        -0.1966 
     27 N         -72.2206   27.6143  -74.9703 N.am      9 UNK        -0.4218 
     28 C         -72.4469   26.8211  -73.9121 C.2       9 UNK         0.5020 
     29 O         -71.7504   26.8191  -72.8966 O.2       9 UNK        -0.5274 
     30 CA        -73.6436   25.8516  -73.9989 C.3       8 UNK         0.0270 
     31 CB        -74.9037   26.4457  -73.3597 C.3       8 UNK        -0.1976 
     32 N         -73.9610   25.4262  -75.3635 N.am      8 UNK        -0.4313 
     33 C         -73.1860   24.6199  -76.1037 C.2       8 UNK         0.5041 
     34 O         -72.1160   24.1474  -75.7180 O.2       8 UNK        -0.5577 
     35 CA        -73.6934   24.2772  -77.5101 C.3       7 UNK         0.0284 
     36 CB        -74.7150   23.1340  -77.4418 C.3       7 UNK        -0.1958 
     37 N         -74.2948   25.4441  -78.1575 N.am      7 UNK        -0.4454 
     38 C         -73.5886   26.3711  -78.8193 C.2       7 UNK         0.5089 
     39 O         -72.3735   26.3047  -79.0067 O.2       7 UNK        -0.5125 
     40 CA        -74.3619   27.5865  -79.3595 C.3       6 UNK         0.0408 
     41 CB        -74.9017   27.2966  -80.7689 C.3       6 UNK        -0.1791 
     42 N         -75.4642   28.0160  -78.4956 N.am      6 UNK        -0.4762 
     43 C         -75.3237   28.4994  -77.2522 C.2       6 UNK         0.5007 
     44 O         -74.2410   28.6152  -76.6804 O.2       6 UNK        -0.5032 
     45 CA        -76.6164   28.9006  -76.5170 C.3       5 UNK         0.0783 
     46 C46       -76.9506   30.3850  -76.8209 C.3       11 UNK        -0.0857 
     47 S47       -78.5501   30.9408  -76.1372 S.3       11 UNK        -0.2512 
     48 C48       -78.0460   31.7261  -74.5744 C.3       11 UNK         0.0225 
     49 N         -77.7427   28.0034  -76.7999 N.am      5 UNK        -0.4615 
     50 C         -77.7751   26.6820  -76.5853 C.2       4 UNK         0.5053 
     51 O         -76.7979   26.0218  -76.2175 O.2       4 UNK        -0.5105 
     52 CA        -79.1440   26.0258  -76.8413 C.3       4 UNK         0.0263 
     53 CB        -79.4931   26.0042  -78.3448 C.3       4 UNK        -0.1981 
     54 N         -79.2804   24.7003  -76.2293 N.am      4 UNK        -0.4224 
     55 C         -78.6980   23.5454  -76.5886 C.2       3 UNK         0.4895 
     56 O         -78.0103   23.3950  -77.5982 O.2       3 UNK        -0.5091 
     57 CA        -78.9279   22.3343  -75.6634 C.3       3 UNK         0.0250 
     58 CB        -77.7605   22.1955  -74.6717 C.3       3 UNK        -0.1996 
     59 N         -80.1842   22.4058  -74.9127 N.am      3 UNK        -0.4254 
     60 C         -81.4067   22.2883  -75.4510 C.2       2 UNK         0.5004 
     61 O         -81.6105   22.0084  -76.6327 O.2       2 UNK        -0.5226 
     62 CA        -82.6089   22.5414  -74.5209 C.3       2 UNK         0.0269 
     63 CB        -83.2019   21.2096  -74.0327 C.3       2 UNK        -0.1926 
     64 N         -82.3138   23.3899  -73.3583 N.am      2 UNK        -0.4687 
     65 C         -81.9095   24.6693  -73.4133 C.2       1 UNK         0.5165 
     66 O         -81.7005   25.2689  -74.4684 O.2       1 UNK        -0.5079 
     67 H67       -85.5175   23.9017  -70.2633 H         1 UNK         0.0900 
     68 H68       -85.2497   25.3664  -69.3143 H         1 UNK         0.0900 
     69 H69       -84.1286   24.0106  -69.1802 H         1 UNK         0.0900 
     70 H70       -82.2194   24.3740  -70.2857 H         1 UNK         0.2959 
     71 H71       -81.9232   26.4501  -72.2392 H         1 UNK         0.1079 
     72 H72       -79.8770   24.2571  -71.6171 H         1 UNK         0.0837 
     73 H73       -80.1607   25.5814  -70.5310 H         1 UNK         0.0837 
     74 H74       -78.7652   27.5730  -70.4808 H         1 UNK         0.0685 
     75 H75       -80.0493   28.2641  -71.4489 H         1 UNK         0.0685 
     76 H76       -79.5299   29.8414  -73.2899 H         1 UNK         0.1434 
     77 H77       -75.5097   31.3019  -73.6383 H         1 UNK         0.1329 
     78 H78       -76.3955   28.0554  -70.9799 H         1 UNK         0.1335 
     79 H79       -74.1642   28.7628  -71.1711 H         1 UNK         0.0680 
     80 H80       -73.7978   29.2459  -72.8136 H         1 UNK         0.0680 
     81 H81       -71.9266   29.5025  -70.4892 H         1 UNK         0.1032 
     82 H82       -71.5585   31.1449  -70.0491 H         1 UNK         0.1032 
     83 H83       -71.0799   31.6142  -72.5410 H         1 UNK         0.0461 
     84 H84       -69.3358   32.6025  -71.3855 H         1 UNK         0.3453 
     85 H85       -67.9003   31.7056  -70.9645 H         1 UNK         0.3453 
     86 H86       -71.5019   28.7003  -72.7595 H         1 UNK         0.2984 
     87 H87       -71.2602   28.8553  -76.2759 H         1 UNK         0.0554 
     88 H88       -68.9326   28.2199  -75.7171 H         1 UNK         0.0847 
     89 H89       -69.8929   26.7952  -76.0841 H         1 UNK         0.0847 
     90 H90       -69.4950   27.1887  -74.4115 H         1 UNK         0.0847 
     91 H91       -72.9451   27.6459  -75.6841 H         1 UNK         0.3141 
     92 H92       -73.3735   24.9584  -73.4315 H         1 UNK         0.0743 
     93 H93       -74.7262   26.6874  -72.3122 H         1 UNK         0.0784 
     94 H94       -75.2221   27.3548  -73.8694 H         1 UNK         0.0784 
     95 H95       -75.7368   25.7425  -73.3888 H         1 UNK         0.0784 
     96 H96       -74.8569   25.7243  -75.7394 H         1 UNK         0.3213 
     97 H97       -72.8438   23.9331  -78.1045 H         1 UNK         0.0855 
     98 H98       -75.5522   23.3912  -76.7939 H         1 UNK         0.0814 
     99 H99       -74.2600   22.2279  -77.0400 H         1 UNK         0.0814 
    100 H100      -75.1136   22.8910  -78.4269 H         1 UNK         0.0814 
    101 H101      -75.2857   25.5914  -78.0154 H         1 UNK         0.3105 
    102 H102      -73.6569   28.4175  -79.4308 H         1 UNK         0.0547 
    103 H103      -74.0961   26.9958  -81.4403 H         1 UNK         0.0837 
    104 H104      -75.6379   26.4917  -80.7635 H         1 UNK         0.0837 
    105 H105      -75.3703   28.1790  -81.2050 H         1 UNK         0.0837 
    106 H106      -76.3974   27.9470  -78.8757 H         1 UNK         0.3020 
    107 H107      -76.4119   28.8097  -75.4486 H         1 UNK         0.1245 
    108 H108      -76.9945   30.5518  -77.8992 H         1 UNK         0.0781 
    109 H109      -76.1567   31.0368  -76.4507 H         1 UNK         0.0781 
    110 H110      -78.8972   32.2707  -74.1634 H         1 UNK         0.0836 
    111 H111      -77.2739   32.4720  -74.7699 H         1 UNK         0.0836 
    112 H112      -78.5922   28.4674  -77.0883 H         1 UNK         0.3022 
    113 H113      -79.8882   26.6435  -76.3355 H         1 UNK         0.0747 
    114 H114      -80.4395   25.4938  -78.5239 H         1 UNK         0.0793 
    115 H115      -78.7255   25.5045  -78.9365 H         1 UNK         0.0793 
    116 H116      -79.5941   27.0152  -78.7405 H         1 UNK         0.0793 
    117 H117      -79.8583   24.6913  -75.3971 H         1 UNK         0.3047 
    118 H118      -78.9569   21.4401  -76.2899 H         1 UNK         0.0822 
    119 H119      -77.8847   21.3241  -74.0286 H         1 UNK         0.0807 
    120 H120      -77.6647   23.0759  -74.0342 H         1 UNK         0.0807 
    121 H121      -76.8142   22.0721  -75.1993 H         1 UNK         0.0807 
    122 H122      -80.1179   22.6145  -73.9275 H         1 UNK         0.2946 
    123 H123      -83.3657   23.0559  -75.1177 H         1 UNK         0.1144 
    124 H124      -83.4601   20.5650  -74.8743 H         1 UNK         0.0793 
    125 H125      -84.1146   21.3677  -73.4579 H         1 UNK         0.0793 
    126 H126      -82.4988   20.6602  -73.4054 H         1 UNK         0.0793 
    127 H127      -82.4712   22.9823  -72.4478 H         1 UNK         0.2896 
@<TRIPOS>BOND
     1    1    2 1    
     2    1   67 1    
     3    1   68 1    
     4    1   69 1    
     5    2    3 2    
     6    2    4 am   BACKBONE|DICT|INTERRES
     7    4    5 1    
     8    4   70 1    
     9    5    6 1    
    10    5   65 1    
    11    5   71 1    
    12    6    7 1    
    13    6   72 1    
    14    6   73 1    
    15    7    8 1    
    16    8    9 1    
    17    8   74 1    
    18    8   75 1    
    19    9   10 ar   
    20    9   14 ar   
    21   10   11 ar   
    22   10   76 1    
    23   11   12 ar   
    24   11   48 1    
    25   12   13 ar   
    26   12   77 1    
    27   13   14 ar   
    28   13   15 1    
    29   14   78 1    
    30   15   16 1    
    31   15   79 1    
    32   15   80 1    
    33   16   17 1    
    34   17   18 1    
    35   17   81 1    
    36   17   82 1    
    37   18   19 1    
    38   18   22 1    
    39   18   83 1    
    40   19   20 am   BACKBONE|DICT|INTERRES
    41   19   21 2    
    42   20   84 1    
    43   20   85 1    
    44   22   23 am   BACKBONE|DICT|INTERRES
    45   22   86 1    
    46   23   24 2    
    47   23   25 1    
    48   25   26 1    
    49   25   27 1    
    50   25   87 1    
    51   26   88 1    
    52   26   89 1    
    53   26   90 1    
    54   27   28 am   BACKBONE|DICT|INTERRES
    55   27   91 1    
    56   28   29 2    
    57   28   30 1    
    58   30   31 1    
    59   30   32 1    
    60   30   92 1    
    61   31   93 1    
    62   31   94 1    
    63   31   95 1    
    64   32   33 am   BACKBONE|DICT|INTERRES
    65   32   96 1    
    66   33   34 2    
    67   33   35 1    
    68   35   36 1    
    69   35   37 1    
    70   35   97 1    
    71   36   98 1    
    72   36   99 1    
    73   36  100 1    
    74   37   38 am   BACKBONE|DICT|INTERRES
    75   37  101 1    
    76   38   39 2    
    77   38   40 1    
    78   40   41 1    
    79   40   42 1    
    80   40  102 1    
    81   41  103 1    
    82   41  104 1    
    83   41  105 1    
    84   42   43 am   BACKBONE|DICT|INTERRES
    85   42  106 1    
    86   43   44 2    
    87   43   45 1    
    88   45   46 1    
    89   45   49 1    
    90   45  107 1    
    91   46   47 1    
    92   46  108 1    
    93   46  109 1    
    94   47   48 1    
    95   48  110 1    
    96   48  111 1    
    97   49   50 am   BACKBONE|DICT|INTERRES
    98   49  112 1    
    99   50   51 2    
   100   50   52 1    
   101   52   53 1    
   102   52   54 1    
   103   52  113 1    
   104   53  114 1    
   105   53  115 1    
   106   53  116 1    
   107   54   55 am   BACKBONE|DICT|INTERRES
   108   54  117 1    
   109   55   56 2    
   110   55   57 1    
   111   57   58 1    
   112   57   59 1    
   113   57  118 1    
   114   58  119 1    
   115   58  120 1    
   116   58  121 1    
   117   59   60 am   BACKBONE|DICT|INTERRES
   118   59  122 1    
   119   60   61 2    
   120   60   62 1    
   121   62   63 1    
   122   62   64 1    
   123   62  123 1    
   124   63  124 1    
   125   63  125 1    
   126   63  126 1    
   127   64   65 am   BACKBONE|DICT|INTERRES
   128   64  127 1    
   129   65   66 2    
@<TRIPOS>SUBSTRUCTURE
     1 UNK         1 GROUP             0       ****    0 ROOT    
