@<TRIPOS>MOLECULE
3R135
127   129    1
SMALL
USER_CHARGES


@<TRIPOS>ATOM
      1 CA        -79.7114   20.9897  -71.0749 C.3       0 UNK        -0.1998 
      2 C         -80.8817   21.9379  -70.8620 C.2       0 UNK         0.4909 
      3 O         -82.0336   21.5032  -70.8719 O.2       0 UNK        -0.5240 
      4 N         -80.5961   23.2321  -70.6705 N.am      1 UNK        -0.4739 
      5 CA        -81.5938   24.2944  -70.4817 C.3       1 UNK         0.0864 
      6 C6        -80.9689   25.5331  -69.7892 C.3       11 UNK        -0.0881 
      7 S7        -79.6282   26.3316  -70.7469 S.3       11 UNK        -0.2682 
      8 C8        -80.4585   27.8682  -71.2699 C.3       11 UNK         0.0289 
      9 C9        -79.5494   28.7814  -72.0833 C.ar      11 UNK        -0.0687 
     10 C10       -79.9389   29.2223  -73.3548 C.ar      11 UNK        -0.0823 
     11 C11       -79.1405   30.1207  -74.0732 C.ar      11 UNK        -0.0830 
     12 C12       -77.9353   30.5561  -73.5146 C.ar      11 UNK        -0.1021 
     13 C13       -77.5156   30.0930  -72.2666 C.ar      11 UNK        -0.0753 
     14 C14       -78.3362   29.2244  -71.5444 C.ar      11 UNK        -0.0933 
     15 C15       -76.1756   30.5422  -71.7093 C.3       11 UNK         0.0166 
     16 S16       -74.8235   29.5238  -72.3785 S.3       11 UNK        -0.2615 
     17 C17       -73.4589   30.7345  -72.3355 C.3       11 UNK        -0.0865 
     18 CA        -72.0683   30.1523  -72.7063 C.3       10 UNK         0.0862 
     19 C         -71.4401   29.2886  -71.5710 C.2       10 UNK         0.5551 
     20 N         -70.8535   28.1305  -71.8518 N.am      10 UNK        -0.7319 
     21 O         -71.4622   29.6889  -70.4095 O.2       10 UNK        -0.5018 
     22 N         -72.0867   29.5016  -74.0259 N.am      10 UNK        -0.4509 
     23 C         -71.0859   29.5321  -74.9145 C.2       10 UNK         0.4899 
     24 O         -70.0604   30.2001  -74.7722 O.2       10 UNK        -0.4839 
     25 CA        -71.2638   28.6395  -76.1585 C.3       9 UNK         0.0222 
     26 CB        -69.9816   28.5178  -77.0083 C.3       9 UNK        -0.1966 
     27 N         -71.7921   27.3120  -75.8224 N.am      9 UNK        -0.4218 
     28 C         -71.2500   26.4018  -74.9974 C.2       9 UNK         0.5020 
     29 O         -70.1853   26.5649  -74.4007 O.2       9 UNK        -0.5274 
     30 CA        -72.0352   25.1021  -74.7610 C.3       8 UNK         0.0270 
     31 CB        -72.7221   25.1411  -73.3842 C.3       8 UNK        -0.1976 
     32 N         -73.0468   24.8722  -75.7974 N.am      8 UNK        -0.4313 
     33 C         -72.9395   23.9679  -76.7786 C.2       8 UNK         0.5041 
     34 O         -71.9767   23.2109  -76.9122 O.2       8 UNK        -0.5577 
     35 CA        -74.1027   23.8738  -77.7791 C.3       7 UNK         0.0284 
     36 CB        -75.2210   22.9722  -77.2304 C.3       7 UNK        -0.1958 
     37 N         -74.6668   25.1681  -78.1703 N.am      7 UNK        -0.4454 
     38 C         -74.0583   26.0454  -78.9815 C.2       7 UNK         0.5089 
     39 O         -72.9019   25.9189  -79.3838 O.2       7 UNK        -0.5125 
     40 CA        -74.8847   27.2549  -79.4448 C.3       6 UNK         0.0408 
     41 CB        -75.9003   26.8324  -80.5194 C.3       6 UNK        -0.1791 
     42 N         -75.5953   27.8707  -78.3258 N.am      6 UNK        -0.4762 
     43 C         -75.2322   29.0131  -77.7262 C.2       6 UNK         0.5007 
     44 O         -74.2963   29.7167  -78.1069 O.2       6 UNK        -0.5032 
     45 CA        -76.0300   29.4500  -76.4763 C.3       5 UNK         0.0783 
     46 C46       -77.1504   30.4714  -76.8527 C.3       11 UNK        -0.0857 
     47 S47       -78.8621   29.8063  -76.8473 S.3       11 UNK        -0.2512 
     48 C48       -79.6056   30.6683  -75.4199 C.3       11 UNK         0.0225 
     49 N         -76.5407   28.3266  -75.6841 N.am      5 UNK        -0.4615 
     50 C         -75.8532   27.2793  -75.2196 C.2       4 UNK         0.5053 
     51 O         -74.6311   27.1714  -75.2998 O.2       4 UNK        -0.5105 
     52 CA        -76.6808   26.1032  -74.6739 C.3       4 UNK         0.0263 
     53 CB        -76.8153   26.1914  -73.1501 C.3       4 UNK        -0.1981 
     54 N         -78.0113   25.9853  -75.2898 N.am      4 UNK        -0.4224 
     55 C         -78.2326   25.7707  -76.5969 C.2       3 UNK         0.4895 
     56 O         -77.3188   25.6744  -77.4183 O.2       3 UNK        -0.5091 
     57 CA        -79.6889   25.6998  -77.1035 C.3       3 UNK         0.0250 
     58 CB        -79.8672   24.5780  -78.1486 C.3       3 UNK        -0.1996 
     59 N         -80.7324   25.6114  -76.0700 N.am      3 UNK        -0.4254 
     60 C         -80.9030   24.6360  -75.1669 C.2       2 UNK         0.5004 
     61 O         -80.1358   23.6818  -75.0179 O.2       2 UNK        -0.5226 
     62 CA        -82.1408   24.7418  -74.2723 C.3       2 UNK         0.0269 
     63 CB        -83.2848   23.8558  -74.7965 C.3       2 UNK        -0.1926 
     64 N         -81.7436   24.3201  -72.9368 N.am      2 UNK        -0.4687 
     65 C         -82.3185   24.6909  -71.7882 C.2       1 UNK         0.5165 
     66 O         -83.3552   25.3541  -71.7297 O.2       1 UNK        -0.5079 
     67 H67       -79.7139   20.2130  -70.3106 H         1 UNK         0.0900 
     68 H68       -78.7535   21.5074  -71.0291 H         1 UNK         0.0900 
     69 H69       -79.7909   20.5095  -72.0498 H         1 UNK         0.0900 
     70 H70       -79.6336   23.5411  -70.6710 H         1 UNK         0.2959 
     71 H71       -82.3673   23.9052  -69.8155 H         1 UNK         0.1079 
     72 H72       -80.5554   25.2369  -68.8239 H         1 UNK         0.0837 
     73 H73       -81.7435   26.2656  -69.5535 H         1 UNK         0.0837 
     74 H74       -81.3531   27.6109  -71.8388 H         1 UNK         0.0685 
     75 H75       -80.7966   28.4116  -70.3865 H         1 UNK         0.0685 
     76 H76       -80.8810   28.8938  -73.7719 H         1 UNK         0.1434 
     77 H77       -77.3108   31.2592  -74.0438 H         1 UNK         0.1329 
     78 H78       -78.0257   28.8800  -70.5674 H         1 UNK         0.1335 
     79 H79       -76.1678   30.4818  -70.6200 H         1 UNK         0.0680 
     80 H80       -76.0143   31.5915  -71.9617 H         1 UNK         0.0680 
     81 H81       -73.7042   31.5350  -73.0351 H         1 UNK         0.1032 
     82 H82       -73.4301   31.2076  -71.3520 H         1 UNK         0.1032 
     83 H83       -71.4031   31.0149  -72.7757 H         1 UNK         0.0461 
     84 H84       -70.4464   27.5971  -71.1006 H         1 UNK         0.3453 
     85 H85       -70.7623   27.8031  -72.8049 H         1 UNK         0.3453 
     86 H86       -72.8837   28.9054  -74.2048 H         1 UNK         0.2984 
     87 H87       -72.0213   29.1239  -76.7748 H         1 UNK         0.0554 
     88 H88       -70.1496   27.9006  -77.8909 H         1 UNK         0.0847 
     89 H89       -69.1597   28.0780  -76.4423 H         1 UNK         0.0847 
     90 H90       -69.6492   29.4964  -77.3567 H         1 UNK         0.0847 
     91 H91       -72.7261   27.1197  -76.1627 H         1 UNK         0.3141 
     92 H92       -71.3115   24.2845  -74.7503 H         1 UNK         0.0743 
     93 H93       -73.2966   24.2332  -73.2004 H         1 UNK         0.0784 
     94 H94       -71.9844   25.2243  -72.5849 H         1 UNK         0.0784 
     95 H95       -73.3972   25.9916  -73.2869 H         1 UNK         0.0784 
     96 H96       -73.8531   25.4889  -75.7724 H         1 UNK         0.3213 
     97 H97       -73.7117   23.4000  -78.6825 H         1 UNK         0.0855 
     98 H98       -74.8348   21.9851  -76.9726 H         1 UNK         0.0814 
     99 H99       -76.0110   22.8279  -77.9677 H         1 UNK         0.0814 
    100 H100      -75.6770   23.3878  -76.3324 H         1 UNK         0.0814 
    101 H101      -75.6344   25.3430  -77.9018 H         1 UNK         0.3105 
    102 H102      -74.1983   27.9708  -79.9019 H         1 UNK         0.0547 
    103 H103      -75.3994   26.3617  -81.3664 H         1 UNK         0.0837 
    104 H104      -76.6304   26.1193  -80.1343 H         1 UNK         0.0837 
    105 H105      -76.4471   27.6930  -80.9046 H         1 UNK         0.0837 
    106 H106      -76.3593   27.3334  -77.9286 H         1 UNK         0.3020 
    107 H107      -75.3095   29.9632  -75.8353 H         1 UNK         0.1245 
    108 H108      -76.9815   30.9105  -77.8385 H         1 UNK         0.0781 
    109 H109      -77.0991   31.3299  -76.1859 H         1 UNK         0.0781 
    110 H110      -80.6906   30.5833  -75.4970 H         1 UNK         0.0836 
    111 H111      -79.3898   31.7360  -75.4835 H         1 UNK         0.0836 
    112 H112      -77.5437   28.3249  -75.5632 H         1 UNK         0.3022 
    113 H113      -76.1316   25.1899  -74.9051 H         1 UNK         0.0747 
    114 H114      -77.3111   25.3111  -72.7408 H         1 UNK         0.0793 
    115 H115      -75.8381   26.2673  -72.6715 H         1 UNK         0.0793 
    116 H116      -77.3875   27.0679  -72.8550 H         1 UNK         0.0793 
    117 H117      -78.8076   26.0460  -74.6731 H         1 UNK         0.3047 
    118 H118      -79.8598   26.6489  -77.6141 H         1 UNK         0.0822 
    119 H119      -79.6524   23.5955  -77.7269 H         1 UNK         0.0807 
    120 H120      -79.1970   24.7187  -78.9978 H         1 UNK         0.0807 
    121 H121      -80.8833   24.5595  -78.5426 H         1 UNK         0.0807 
    122 H122      -81.4142   26.3577  -76.0937 H         1 UNK         0.2946 
    123 H123      -82.4716   25.7826  -74.2353 H         1 UNK         0.1144 
    124 H124      -83.5759   24.1497  -75.8058 H         1 UNK         0.0793 
    125 H125      -82.9946   22.8048  -74.8318 H         1 UNK         0.0793 
    126 H126      -84.1712   23.9367  -74.1671 H         1 UNK         0.0793 
    127 H127      -80.8844   23.7855  -72.9039 H         1 UNK         0.2896 
@<TRIPOS>BOND
     1    1    2 1    
     2    1   67 1    
     3    1   68 1    
     4    1   69 1    
     5    2    3 2    
     6    2    4 am   BACKBONE|DICT|INTERRES
     7    4    5 1    
     8    4   70 1    
     9    5    6 1    
    10    5   65 1    
    11    5   71 1    
    12    6    7 1    
    13    6   72 1    
    14    6   73 1    
    15    7    8 1    
    16    8    9 1    
    17    8   74 1    
    18    8   75 1    
    19    9   10 ar   
    20    9   14 ar   
    21   10   11 ar   
    22   10   76 1    
    23   11   12 ar   
    24   11   48 1    
    25   12   13 ar   
    26   12   77 1    
    27   13   14 ar   
    28   13   15 1    
    29   14   78 1    
    30   15   16 1    
    31   15   79 1    
    32   15   80 1    
    33   16   17 1    
    34   17   18 1    
    35   17   81 1    
    36   17   82 1    
    37   18   19 1    
    38   18   22 1    
    39   18   83 1    
    40   19   20 am   BACKBONE|DICT|INTERRES
    41   19   21 2    
    42   20   84 1    
    43   20   85 1    
    44   22   23 am   BACKBONE|DICT|INTERRES
    45   22   86 1    
    46   23   24 2    
    47   23   25 1    
    48   25   26 1    
    49   25   27 1    
    50   25   87 1    
    51   26   88 1    
    52   26   89 1    
    53   26   90 1    
    54   27   28 am   BACKBONE|DICT|INTERRES
    55   27   91 1    
    56   28   29 2    
    57   28   30 1    
    58   30   31 1    
    59   30   32 1    
    60   30   92 1    
    61   31   93 1    
    62   31   94 1    
    63   31   95 1    
    64   32   33 am   BACKBONE|DICT|INTERRES
    65   32   96 1    
    66   33   34 2    
    67   33   35 1    
    68   35   36 1    
    69   35   37 1    
    70   35   97 1    
    71   36   98 1    
    72   36   99 1    
    73   36  100 1    
    74   37   38 am   BACKBONE|DICT|INTERRES
    75   37  101 1    
    76   38   39 2    
    77   38   40 1    
    78   40   41 1    
    79   40   42 1    
    80   40  102 1    
    81   41  103 1    
    82   41  104 1    
    83   41  105 1    
    84   42   43 am   BACKBONE|DICT|INTERRES
    85   42  106 1    
    86   43   44 2    
    87   43   45 1    
    88   45   46 1    
    89   45   49 1    
    90   45  107 1    
    91   46   47 1    
    92   46  108 1    
    93   46  109 1    
    94   47   48 1    
    95   48  110 1    
    96   48  111 1    
    97   49   50 am   BACKBONE|DICT|INTERRES
    98   49  112 1    
    99   50   51 2    
   100   50   52 1    
   101   52   53 1    
   102   52   54 1    
   103   52  113 1    
   104   53  114 1    
   105   53  115 1    
   106   53  116 1    
   107   54   55 am   BACKBONE|DICT|INTERRES
   108   54  117 1    
   109   55   56 2    
   110   55   57 1    
   111   57   58 1    
   112   57   59 1    
   113   57  118 1    
   114   58  119 1    
   115   58  120 1    
   116   58  121 1    
   117   59   60 am   BACKBONE|DICT|INTERRES
   118   59  122 1    
   119   60   61 2    
   120   60   62 1    
   121   62   63 1    
   122   62   64 1    
   123   62  123 1    
   124   63  124 1    
   125   63  125 1    
   126   63  126 1    
   127   64   65 am   BACKBONE|DICT|INTERRES
   128   64  127 1    
   129   65   66 2    
@<TRIPOS>SUBSTRUCTURE
     1 UNK         1 GROUP             0       ****    0 ROOT    
