@<TRIPOS>MOLECULE
3R135
127   129    1
SMALL
USER_CHARGES


@<TRIPOS>ATOM
      1 CA        -81.0030   21.9400  -70.7869 C.3       0 UNK        -0.1998 
      2 C         -81.9380   23.0893  -71.1323 C.2       0 UNK         0.4909 
      3 O         -83.1562   22.9120  -71.1244 O.2       0 UNK        -0.5240 
      4 N         -81.3738   24.2665  -71.4337 N.am      1 UNK        -0.4739 
      5 CA        -82.1054   25.4923  -71.7873 C.3       1 UNK         0.0864 
      6 C6        -81.1648   26.7192  -71.8595 C.3       11 UNK        -0.0881 
      7 S7        -80.2146   27.0310  -70.3300 S.3       11 UNK        -0.2682 
      8 C8        -78.4875   26.9750  -70.9271 C.3       11 UNK         0.0289 
      9 C9        -77.9840   28.2934  -71.5158 C.ar      11 UNK        -0.0687 
     10 C10       -78.7109   28.9793  -72.4946 C.ar      11 UNK        -0.0823 
     11 C11       -78.2170   30.1496  -73.0725 C.ar      11 UNK        -0.0830 
     12 C12       -76.9787   30.6488  -72.6617 C.ar      11 UNK        -0.1021 
     13 C13       -76.2401   29.9823  -71.6795 C.ar      11 UNK        -0.0753 
     14 C14       -76.7476   28.8087  -71.1109 C.ar      11 UNK        -0.0933 
     15 C15       -74.8919   30.5258  -71.2336 C.3       11 UNK         0.0166 
     16 S16       -73.5296   29.6040  -72.0068 S.3       11 UNK        -0.2615 
     17 C17       -72.0755   30.4794  -71.3362 C.3       11 UNK        -0.0865 
     18 CA        -71.1424   31.0227  -72.4503 C.3       10 UNK         0.0862 
     19 C         -70.0316   31.9279  -71.8384 C.2       10 UNK         0.5551 
     20 N         -68.7586   31.5553  -71.8967 N.am      10 UNK        -0.7319 
     21 O         -70.3349   32.9907  -71.3020 O.2       10 UNK        -0.5018 
     22 N         -70.6527   29.9371  -73.3191 N.am      10 UNK        -0.4509 
     23 C         -70.0949   30.1031  -74.5259 C.2       10 UNK         0.4899 
     24 O         -69.9393   31.1988  -75.0657 O.2       10 UNK        -0.4839 
     25 CA        -69.6132   28.8353  -75.2549 C.3       9 UNK         0.0222 
     26 CB        -68.1120   28.6146  -75.0051 C.3       9 UNK        -0.1966 
     27 N         -70.3506   27.6264  -74.8715 N.am      9 UNK        -0.4218 
     28 C         -71.5874   27.3310  -75.2936 C.2       9 UNK         0.5020 
     29 O         -72.2409   28.0437  -76.0583 O.2       9 UNK        -0.5274 
     30 CA        -72.1994   26.0345  -74.7386 C.3       8 UNK         0.0270 
     31 CB        -72.9951   26.3178  -73.4551 C.3       8 UNK        -0.1976 
     32 N         -73.0774   25.3938  -75.7195 N.am      8 UNK        -0.4313 
     33 C         -72.6363   24.6759  -76.7614 C.2       8 UNK         0.5041 
     34 O         -71.4443   24.4496  -76.9782 O.2       8 UNK        -0.5577 
     35 CA        -73.6909   24.0889  -77.7150 C.3       7 UNK         0.0284 
     36 CB        -74.2896   22.7983  -77.1341 C.3       7 UNK        -0.1958 
     37 N         -74.7652   25.0268  -78.0446 N.am      7 UNK        -0.4454 
     38 C         -74.6151   26.1043  -78.8284 C.2       7 UNK         0.5089 
     39 O         -73.5491   26.4322  -79.3505 O.2       7 UNK        -0.5125 
     40 CA        -75.8721   26.9456  -79.1010 C.3       6 UNK         0.0408 
     41 CB        -76.6608   26.3727  -80.2898 C.3       6 UNK        -0.1791 
     42 N         -76.7423   27.0199  -77.9271 N.am      6 UNK        -0.4762 
     43 C         -76.5784   27.8970  -76.9259 C.2       6 UNK         0.5007 
     44 O         -75.7068   28.7664  -76.9224 O.2       6 UNK        -0.5032 
     45 CA        -77.5431   27.7796  -75.7227 C.3       5 UNK         0.0783 
     46 C46       -78.8128   28.6480  -75.9266 C.3       11 UNK        -0.0857 
     47 S47       -78.4744   30.4424  -75.8228 S.3       11 UNK        -0.2512 
     48 C48       -79.0292   30.8668  -74.1411 C.3       11 UNK         0.0225 
     49 N         -77.8940   26.3861  -75.4179 N.am      5 UNK        -0.4615 
     50 C         -77.0144   25.4507  -75.0239 C.2       4 UNK         0.5053 
     51 O         -75.8197   25.6718  -74.8390 O.2       4 UNK        -0.5105 
     52 CA        -77.5297   24.0074  -74.8628 C.3       4 UNK         0.0263 
     53 CB        -78.0329   23.7783  -73.4290 C.3       4 UNK        -0.1981 
     54 N         -78.5884   23.6416  -75.8055 N.am      4 UNK        -0.4224 
     55 C         -78.5544   23.7849  -77.1385 C.2       3 UNK         0.4895 
     56 O         -77.5527   24.1386  -77.7608 O.2       3 UNK        -0.5091 
     57 CA        -79.8752   23.5605  -77.9011 C.3       3 UNK         0.0250 
     58 CB        -79.8398   22.2148  -78.6422 C.3       3 UNK        -0.1996 
     59 N         -81.0871   23.6246  -77.0681 N.am      3 UNK        -0.4254 
     60 C         -81.4770   24.6692  -76.3198 C.2       2 UNK         0.5004 
     61 O         -80.8406   25.7231  -76.2382 O.2       2 UNK        -0.5226 
     62 CA        -82.7331   24.4921  -75.4527 C.3       2 UNK         0.0269 
     63 CB        -83.4827   23.1593  -75.6614 C.3       2 UNK        -0.1926 
     64 N         -82.3095   24.5963  -74.0588 N.am      2 UNK        -0.4687 
     65 C         -82.8658   25.3797  -73.1279 C.2       1 UNK         0.5165 
     66 O         -83.9015   26.0243  -73.2993 O.2       1 UNK        -0.5079 
     67 H67       -79.9553   22.2365  -70.8349 H         1 UNK         0.0900 
     68 H68       -81.2075   21.5808  -69.7786 H         1 UNK         0.0900 
     69 H69       -81.1533   21.1131  -71.4804 H         1 UNK         0.0900 
     70 H70       -80.3720   24.3648  -71.3628 H         1 UNK         0.2959 
     71 H71       -82.8497   25.6709  -71.0080 H         1 UNK         0.1079 
     72 H72       -80.4742   26.5909  -72.6950 H         1 UNK         0.0837 
     73 H73       -81.7400   27.6228  -72.0730 H         1 UNK         0.0837 
     74 H74       -77.8613   26.6837  -70.0825 H         1 UNK         0.0685 
     75 H75       -78.3727   26.1859  -71.6694 H         1 UNK         0.0685 
     76 H76       -79.6654   28.6095  -72.8268 H         1 UNK         0.1434 
     77 H77       -76.5886   31.5518  -73.1117 H         1 UNK         0.1329 
     78 H78       -76.1648   28.2886  -70.3627 H         1 UNK         0.1335 
     79 H79       -74.8081   30.4566  -70.1479 H         1 UNK         0.0680 
     80 H80       -74.8035   31.5835  -71.4873 H         1 UNK         0.0680 
     81 H81       -71.5314   29.7947  -70.6830 H         1 UNK         0.1032 
     82 H82       -72.4166   31.2945  -70.6946 H         1 UNK         0.1032 
     83 H83       -71.7418   31.6829  -73.0805 H         1 UNK         0.0461 
     84 H84       -68.0499   32.1517  -71.4995 H         1 UNK         0.3453 
     85 H85       -68.5012   30.6871  -72.3367 H         1 UNK         0.3453 
     86 H86       -70.7551   29.0013  -72.9582 H         1 UNK         0.2984 
     87 H87       -69.7547   28.9991  -76.3255 H         1 UNK         0.0554 
     88 H88       -67.5342   29.4913  -75.3015 H         1 UNK         0.0847 
     89 H89       -67.7333   27.7713  -75.5831 H         1 UNK         0.0847 
     90 H90       -67.8976   28.4243  -73.9528 H         1 UNK         0.0847 
     91 H91       -69.8813   26.9843  -74.2484 H         1 UNK         0.3141 
     92 H92       -71.3934   25.3396  -74.4927 H         1 UNK         0.0743 
     93 H93       -73.8024   27.0296  -73.6341 H         1 UNK         0.0784 
     94 H94       -73.4384   25.4072  -73.0518 H         1 UNK         0.0784 
     95 H95       -72.3550   26.7389  -72.6791 H         1 UNK         0.0784 
     96 H96       -74.0760   25.5496  -75.6008 H         1 UNK         0.3213 
     97 H97       -73.1837   23.8296  -78.6471 H         1 UNK         0.0855 
     98 H98       -74.7547   22.9720  -76.1649 H         1 UNK         0.0814 
     99 H99       -73.5154   22.0437  -76.9897 H         1 UNK         0.0814 
    100 H100      -75.0412   22.3707  -77.7982 H         1 UNK         0.0814 
    101 H101      -75.7000   24.7953  -77.7221 H         1 UNK         0.3105 
    102 H102      -75.5494   27.9532  -79.3723 H         1 UNK         0.0547 
    103 H103      -77.5315   26.9863  -80.5209 H         1 UNK         0.0837 
    104 H104      -77.0075   25.3565  -80.0991 H         1 UNK         0.0837 
    105 H105      -76.0409   26.3403  -81.1867 H         1 UNK         0.0837 
    106 H106      -77.4347   26.2876  -77.8294 H         1 UNK         0.3020 
    107 H107      -77.0032   28.1600  -74.8517 H         1 UNK         0.1245 
    108 H108      -79.5719   28.3924  -75.1869 H         1 UNK         0.0781 
    109 H109      -79.2743   28.4353  -76.8930 H         1 UNK         0.0781 
    110 H110      -80.0912   30.6366  -74.0408 H         1 UNK         0.0836 
    111 H111      -78.9408   31.9455  -74.0034 H         1 UNK         0.0836 
    112 H112      -78.8572   26.1165  -75.5881 H         1 UNK         0.3022 
    113 H113      -76.6911   23.3339  -75.0395 H         1 UNK         0.0747 
    114 H114      -78.2954   22.7334  -73.2616 H         1 UNK         0.0793 
    115 H115      -77.2638   24.0370  -72.6994 H         1 UNK         0.0793 
    116 H116      -78.9108   24.3863  -73.2115 H         1 UNK         0.0793 
    117 H117      -79.4531   23.3151  -75.4039 H         1 UNK         0.3047 
    118 H118      -79.9488   24.3584  -78.6429 H         1 UNK         0.0822 
    119 H119      -80.7184   22.0855  -79.2745 H         1 UNK         0.0807 
    120 H120      -79.7954   21.3730  -77.9499 H         1 UNK         0.0807 
    121 H121      -78.9652   22.1489  -79.2914 H         1 UNK         0.0807 
    122 H122      -81.6670   22.7975  -77.0617 H         1 UNK         0.2946 
    123 H123      -83.4044   25.3146  -75.7110 H         1 UNK         0.1144 
    124 H124      -82.8722   22.2949  -75.3971 H         1 UNK         0.0793 
    125 H125      -83.8080   23.0432  -76.6963 H         1 UNK         0.0793 
    126 H126      -84.3801   23.1221  -75.0433 H         1 UNK         0.0793 
    127 H127      -81.4540   24.1207  -73.8148 H         1 UNK         0.2896 
@<TRIPOS>BOND
     1    1    2 1    
     2    1   67 1    
     3    1   68 1    
     4    1   69 1    
     5    2    3 2    
     6    2    4 am   BACKBONE|DICT|INTERRES
     7    4    5 1    
     8    4   70 1    
     9    5    6 1    
    10    5   65 1    
    11    5   71 1    
    12    6    7 1    
    13    6   72 1    
    14    6   73 1    
    15    7    8 1    
    16    8    9 1    
    17    8   74 1    
    18    8   75 1    
    19    9   10 ar   
    20    9   14 ar   
    21   10   11 ar   
    22   10   76 1    
    23   11   12 ar   
    24   11   48 1    
    25   12   13 ar   
    26   12   77 1    
    27   13   14 ar   
    28   13   15 1    
    29   14   78 1    
    30   15   16 1    
    31   15   79 1    
    32   15   80 1    
    33   16   17 1    
    34   17   18 1    
    35   17   81 1    
    36   17   82 1    
    37   18   19 1    
    38   18   22 1    
    39   18   83 1    
    40   19   20 am   BACKBONE|DICT|INTERRES
    41   19   21 2    
    42   20   84 1    
    43   20   85 1    
    44   22   23 am   BACKBONE|DICT|INTERRES
    45   22   86 1    
    46   23   24 2    
    47   23   25 1    
    48   25   26 1    
    49   25   27 1    
    50   25   87 1    
    51   26   88 1    
    52   26   89 1    
    53   26   90 1    
    54   27   28 am   BACKBONE|DICT|INTERRES
    55   27   91 1    
    56   28   29 2    
    57   28   30 1    
    58   30   31 1    
    59   30   32 1    
    60   30   92 1    
    61   31   93 1    
    62   31   94 1    
    63   31   95 1    
    64   32   33 am   BACKBONE|DICT|INTERRES
    65   32   96 1    
    66   33   34 2    
    67   33   35 1    
    68   35   36 1    
    69   35   37 1    
    70   35   97 1    
    71   36   98 1    
    72   36   99 1    
    73   36  100 1    
    74   37   38 am   BACKBONE|DICT|INTERRES
    75   37  101 1    
    76   38   39 2    
    77   38   40 1    
    78   40   41 1    
    79   40   42 1    
    80   40  102 1    
    81   41  103 1    
    82   41  104 1    
    83   41  105 1    
    84   42   43 am   BACKBONE|DICT|INTERRES
    85   42  106 1    
    86   43   44 2    
    87   43   45 1    
    88   45   46 1    
    89   45   49 1    
    90   45  107 1    
    91   46   47 1    
    92   46  108 1    
    93   46  109 1    
    94   47   48 1    
    95   48  110 1    
    96   48  111 1    
    97   49   50 am   BACKBONE|DICT|INTERRES
    98   49  112 1    
    99   50   51 2    
   100   50   52 1    
   101   52   53 1    
   102   52   54 1    
   103   52  113 1    
   104   53  114 1    
   105   53  115 1    
   106   53  116 1    
   107   54   55 am   BACKBONE|DICT|INTERRES
   108   54  117 1    
   109   55   56 2    
   110   55   57 1    
   111   57   58 1    
   112   57   59 1    
   113   57  118 1    
   114   58  119 1    
   115   58  120 1    
   116   58  121 1    
   117   59   60 am   BACKBONE|DICT|INTERRES
   118   59  122 1    
   119   60   61 2    
   120   60   62 1    
   121   62   63 1    
   122   62   64 1    
   123   62  123 1    
   124   63  124 1    
   125   63  125 1    
   126   63  126 1    
   127   64   65 am   BACKBONE|DICT|INTERRES
   128   64  127 1    
   129   65   66 2    
@<TRIPOS>SUBSTRUCTURE
     1 UNK         1 GROUP             0       ****    0 ROOT    
