@<TRIPOS>MOLECULE
3R135
127   129    1
SMALL
USER_CHARGES


@<TRIPOS>ATOM
      1 CA        -83.7812   29.9124  -72.6091 C.3       0 UNK        -0.1998 
      2 C         -82.7125   29.1274  -73.3540 C.2       0 UNK         0.4909 
      3 O         -82.2335   28.1163  -72.8417 O.2       0 UNK        -0.5240 
      4 N         -82.3510   29.5801  -74.5631 N.am      1 UNK        -0.4739 
      5 CA        -81.3215   29.0485  -75.4779 C.3       1 UNK         0.0864 
      6 C6        -79.8983   28.9708  -74.8676 C.3       11 UNK        -0.0881 
      7 S7        -79.3122   30.5512  -74.1711 S.3       11 UNK        -0.2682 
      8 C8        -79.0982   30.1119  -72.4151 C.3       11 UNK         0.0289 
      9 C9        -78.0312   29.0436  -72.2086 C.ar      11 UNK        -0.0687 
     10 C10       -78.3714   27.7933  -71.6779 C.ar      11 UNK        -0.0823 
     11 C11       -77.3889   26.8200  -71.4614 C.ar      11 UNK        -0.0830 
     12 C12       -76.0610   27.1079  -71.7862 C.ar      11 UNK        -0.1021 
     13 C13       -75.7152   28.3392  -72.3473 C.ar      11 UNK        -0.0753 
     14 C14       -76.7005   29.3087  -72.5447 C.ar      11 UNK        -0.0933 
     15 C15       -74.2840   28.5930  -72.7826 C.3       11 UNK         0.0166 
     16 S16       -73.2665   29.2914  -71.4465 S.3       11 UNK        -0.2615 
     17 C17       -73.3932   31.0843  -71.7859 C.3       11 UNK        -0.0865 
     18 CA        -72.2122   31.6392  -72.6325 C.3       10 UNK         0.0862 
     19 C         -70.8593   31.6699  -71.8639 C.2       10 UNK         0.5551 
     20 N         -69.7661   31.1397  -72.4048 N.am      10 UNK        -0.7319 
     21 O         -70.7917   32.2118  -70.7632 O.2       10 UNK        -0.5018 
     22 N         -72.1202   30.9854  -73.9422 N.am      10 UNK        -0.4509 
     23 C         -72.8279   31.2747  -75.0333 C.2       10 UNK         0.4899 
     24 O         -73.6605   32.1799  -75.0871 O.2       10 UNK        -0.4839 
     25 CA        -72.5938   30.3955  -76.2774 C.3       9 UNK         0.0222 
     26 CB        -71.5529   31.0412  -77.2120 C.3       9 UNK        -0.1966 
     27 N         -72.2669   28.9810  -76.0181 N.am      9 UNK        -0.4218 
     28 C         -71.1763   28.4506  -75.4357 C.2       9 UNK         0.5020 
     29 O         -70.2863   29.1303  -74.9197 O.2       9 UNK        -0.5274 
     30 CA        -71.0438   26.9132  -75.3952 C.3       8 UNK         0.0270 
     31 CB        -70.9952   26.3893  -73.9498 C.3       8 UNK        -0.1976 
     32 N         -72.0970   26.2100  -76.1342 N.am      8 UNK        -0.4313 
     33 C         -72.1202   26.0813  -77.4702 C.2       8 UNK         0.5041 
     34 O         -71.2115   26.4705  -78.2047 O.2       8 UNK        -0.5577 
     35 CA        -73.3668   25.4407  -78.1110 C.3       7 UNK         0.0284 
     36 CB        -73.0813   23.9793  -78.4916 C.3       7 UNK        -0.1958 
     37 N         -74.5716   25.4950  -77.2779 N.am      7 UNK        -0.4454 
     38 C         -75.1732   26.6162  -76.8501 C.2       7 UNK         0.5089 
     39 O         -74.7792   27.7487  -77.1295 O.2       7 UNK        -0.5125 
     40 CA        -76.3875   26.4524  -75.9168 C.3       6 UNK         0.0408 
     41 CB        -77.6873   26.5270  -76.7318 C.3       6 UNK        -0.1791 
     42 N         -76.3944   25.2082  -75.1433 N.am      6 UNK        -0.4762 
     43 C         -75.4221   24.7665  -74.3294 C.2       6 UNK         0.5007 
     44 O         -74.3563   25.3571  -74.1475 O.2       6 UNK        -0.5032 
     45 CA        -75.6459   23.3916  -73.6661 C.3       5 UNK         0.0783 
     46 C46       -76.1934   23.5152  -72.2211 C.3       11 UNK        -0.0857 
     47 S47       -77.9064   24.1513  -72.1043 S.3       11 UNK        -0.2512 
     48 C48       -77.7582   25.4719  -70.8536 C.3       11 UNK         0.0225 
     49 N         -76.4523   22.4791  -74.4870 N.am      5 UNK        -0.4615 
     50 C         -76.1224   22.0501  -75.7142 C.2       4 UNK         0.5053 
     51 O         -75.0847   22.3744  -76.2916 O.2       4 UNK        -0.5105 
     52 CA        -77.1116   21.1151  -76.4313 C.3       4 UNK         0.0263 
     53 CB        -76.6336   19.6573  -76.3328 C.3       4 UNK        -0.1981 
     54 N         -78.4900   21.2039  -75.9382 N.am      4 UNK        -0.4224 
     55 C         -79.2939   22.2660  -76.0889 C.2       3 UNK         0.4895 
     56 O         -78.9447   23.3058  -76.6516 O.2       3 UNK        -0.5091 
     57 CA        -80.7258   22.0979  -75.5429 C.3       3 UNK         0.0250 
     58 CB        -80.7364   21.7477  -74.0372 C.3       3 UNK        -0.1996 
     59 N         -81.6094   23.2390  -75.8246 N.am      3 UNK        -0.4254 
     60 C         -81.5476   24.4782  -75.3142 C.2       2 UNK         0.5004 
     61 O         -80.7072   24.8567  -74.4947 O.2       2 UNK        -0.5226 
     62 CA        -82.6618   25.4368  -75.7701 C.3       2 UNK         0.0269 
     63 CB        -84.0058   25.0537  -75.1251 C.3       2 UNK        -0.1926 
     64 N         -82.3483   26.8106  -75.3847 N.am      2 UNK        -0.4687 
     65 C         -81.6877   27.6979  -76.1333 C.2       1 UNK         0.5165 
     66 O         -81.3688   27.4922  -77.3054 O.2       1 UNK        -0.5079 
     67 H67       -84.6440   29.2769  -72.4117 H         1 UNK         0.0900 
     68 H68       -83.3897   30.2624  -71.6543 H         1 UNK         0.0900 
     69 H69       -84.1203   30.7800  -73.1747 H         1 UNK         0.0900 
     70 H70       -82.8205   30.4028  -74.9156 H         1 UNK         0.2959 
     71 H71       -81.2773   29.7679  -76.2976 H         1 UNK         0.1079 
     72 H72       -79.1789   28.6889  -75.6362 H         1 UNK         0.0837 
     73 H73       -79.8508   28.1837  -74.1134 H         1 UNK         0.0837 
     74 H74       -80.0570   29.7900  -72.0066 H         1 UNK         0.0685 
     75 H75       -78.8147   31.0076  -71.8609 H         1 UNK         0.0685 
     76 H76       -79.4025   27.5796  -71.4294 H         1 UNK         0.1434 
     77 H77       -75.2909   26.3680  -71.6243 H         1 UNK         0.1329 
     78 H78       -76.4389   30.2647  -72.9767 H         1 UNK         0.1335 
     79 H79       -73.8354   27.6556  -73.1019 H         1 UNK         0.0680 
     80 H80       -74.2716   29.2363  -73.6610 H         1 UNK         0.0680 
     81 H81       -73.4563   31.6107  -70.8319 H         1 UNK         0.1032 
     82 H82       -74.3377   31.2934  -72.2890 H         1 UNK         0.1032 
     83 H83       -72.4250   32.6931  -72.8211 H         1 UNK         0.0461 
     84 H84       -68.9011   31.1824  -71.8896 H         1 UNK         0.3453 
     85 H85       -69.7848   30.6909  -73.3089 H         1 UNK         0.3453 
     86 H86       -71.4364   30.2382  -74.0208 H         1 UNK         0.2984 
     87 H87       -73.5430   30.3725  -76.8152 H         1 UNK         0.0554 
     88 H88       -71.8517   32.0535  -77.4874 H         1 UNK         0.0847 
     89 H89       -71.4440   30.4734  -78.1361 H         1 UNK         0.0847 
     90 H90       -70.5708   31.1108  -76.7432 H         1 UNK         0.0847 
     91 H91       -72.9651   28.3338  -76.3713 H         1 UNK         0.3141 
     92 H92       -70.0833   26.6763  -75.8577 H         1 UNK         0.0743 
     93 H93       -70.2068   26.8814  -73.3785 H         1 UNK         0.0784 
     94 H94       -71.9312   26.5564  -73.4208 H         1 UNK         0.0784 
     95 H95       -70.7887   25.3193  -73.9261 H         1 UNK         0.0784 
     96 H96       -72.8829   25.8639  -75.5917 H         1 UNK         0.3213 
     97 H97       -73.5795   25.9977  -79.0259 H         1 UNK         0.0855 
     98 H98       -72.8596   23.3711  -77.6136 H         1 UNK         0.0814 
     99 H99       -72.2227   23.9102  -79.1610 H         1 UNK         0.0814 
    100 H100      -73.9297   23.5277  -79.0062 H         1 UNK         0.0814 
    101 H101      -74.9447   24.6063  -76.9662 H         1 UNK         0.3105 
    102 H102      -76.3745   27.2786  -75.2030 H         1 UNK         0.0547 
    103 H103      -77.7375   25.7359  -77.4812 H         1 UNK         0.0837 
    104 H104      -77.7670   27.4790  -77.2580 H         1 UNK         0.0837 
    105 H105      -78.5656   26.4277  -76.0931 H         1 UNK         0.0837 
    106 H106      -77.2224   24.6333  -75.2344 H         1 UNK         0.3020 
    107 H107      -74.6541   22.9388  -73.5942 H         1 UNK         0.1245 
    108 H108      -75.5215   24.1246  -71.6164 H         1 UNK         0.0781 
    109 H109      -76.1809   22.5317  -71.7489 H         1 UNK         0.0781 
    110 H110      -77.0295   25.1892  -70.0926 H         1 UNK         0.0836 
    111 H111      -78.7129   25.5529  -70.3317 H         1 UNK         0.0836 
    112 H112      -77.3324   22.1847  -74.0903 H         1 UNK         0.3022 
    113 H113      -77.1158   21.4014  -77.4854 H         1 UNK         0.0747 
    114 H114      -77.2701   18.9897  -76.9139 H         1 UNK         0.0793 
    115 H115      -75.6193   19.5520  -76.7208 H         1 UNK         0.0793 
    116 H116      -76.6257   19.3030  -75.3011 H         1 UNK         0.0793 
    117 H117      -78.8547   20.3815  -75.4789 H         1 UNK         0.3047 
    118 H118      -81.1607   21.2547  -76.0820 H         1 UNK         0.0822 
    119 H119      -81.7549   21.6780  -73.6549 H         1 UNK         0.0807 
    120 H120      -80.2093   22.4938  -73.4416 H         1 UNK         0.0807 
    121 H121      -80.2600   20.7863  -73.8443 H         1 UNK         0.0807 
    122 H122      -82.3321   23.0522  -76.5057 H         1 UNK         0.2946 
    123 H123      -82.7544   25.3700  -76.8568 H         1 UNK         0.1144 
    124 H124      -84.8006   25.7328  -75.4343 H         1 UNK         0.0793 
    125 H125      -83.9501   25.0787  -74.0358 H         1 UNK         0.0793 
    126 H126      -84.3132   24.0477  -75.4132 H         1 UNK         0.0793 
    127 H127      -82.4642   27.0445  -74.4023 H         1 UNK         0.2896 
@<TRIPOS>BOND
     1    1    2 1    
     2    1   67 1    
     3    1   68 1    
     4    1   69 1    
     5    2    3 2    
     6    2    4 am   BACKBONE|DICT|INTERRES
     7    4    5 1    
     8    4   70 1    
     9    5    6 1    
    10    5   65 1    
    11    5   71 1    
    12    6    7 1    
    13    6   72 1    
    14    6   73 1    
    15    7    8 1    
    16    8    9 1    
    17    8   74 1    
    18    8   75 1    
    19    9   10 ar   
    20    9   14 ar   
    21   10   11 ar   
    22   10   76 1    
    23   11   12 ar   
    24   11   48 1    
    25   12   13 ar   
    26   12   77 1    
    27   13   14 ar   
    28   13   15 1    
    29   14   78 1    
    30   15   16 1    
    31   15   79 1    
    32   15   80 1    
    33   16   17 1    
    34   17   18 1    
    35   17   81 1    
    36   17   82 1    
    37   18   19 1    
    38   18   22 1    
    39   18   83 1    
    40   19   20 am   BACKBONE|DICT|INTERRES
    41   19   21 2    
    42   20   84 1    
    43   20   85 1    
    44   22   23 am   BACKBONE|DICT|INTERRES
    45   22   86 1    
    46   23   24 2    
    47   23   25 1    
    48   25   26 1    
    49   25   27 1    
    50   25   87 1    
    51   26   88 1    
    52   26   89 1    
    53   26   90 1    
    54   27   28 am   BACKBONE|DICT|INTERRES
    55   27   91 1    
    56   28   29 2    
    57   28   30 1    
    58   30   31 1    
    59   30   32 1    
    60   30   92 1    
    61   31   93 1    
    62   31   94 1    
    63   31   95 1    
    64   32   33 am   BACKBONE|DICT|INTERRES
    65   32   96 1    
    66   33   34 2    
    67   33   35 1    
    68   35   36 1    
    69   35   37 1    
    70   35   97 1    
    71   36   98 1    
    72   36   99 1    
    73   36  100 1    
    74   37   38 am   BACKBONE|DICT|INTERRES
    75   37  101 1    
    76   38   39 2    
    77   38   40 1    
    78   40   41 1    
    79   40   42 1    
    80   40  102 1    
    81   41  103 1    
    82   41  104 1    
    83   41  105 1    
    84   42   43 am   BACKBONE|DICT|INTERRES
    85   42  106 1    
    86   43   44 2    
    87   43   45 1    
    88   45   46 1    
    89   45   49 1    
    90   45  107 1    
    91   46   47 1    
    92   46  108 1    
    93   46  109 1    
    94   47   48 1    
    95   48  110 1    
    96   48  111 1    
    97   49   50 am   BACKBONE|DICT|INTERRES
    98   49  112 1    
    99   50   51 2    
   100   50   52 1    
   101   52   53 1    
   102   52   54 1    
   103   52  113 1    
   104   53  114 1    
   105   53  115 1    
   106   53  116 1    
   107   54   55 am   BACKBONE|DICT|INTERRES
   108   54  117 1    
   109   55   56 2    
   110   55   57 1    
   111   57   58 1    
   112   57   59 1    
   113   57  118 1    
   114   58  119 1    
   115   58  120 1    
   116   58  121 1    
   117   59   60 am   BACKBONE|DICT|INTERRES
   118   59  122 1    
   119   60   61 2    
   120   60   62 1    
   121   62   63 1    
   122   62   64 1    
   123   62  123 1    
   124   63  124 1    
   125   63  125 1    
   126   63  126 1    
   127   64   65 am   BACKBONE|DICT|INTERRES
   128   64  127 1    
   129   65   66 2    
@<TRIPOS>SUBSTRUCTURE
     1 UNK         1 GROUP             0       ****    0 ROOT    
