@<TRIPOS>MOLECULE
3R135
127   129    1
SMALL
USER_CHARGES


@<TRIPOS>ATOM
      1 CA        -84.8101   24.8102  -71.7443 C.3       0 UNK        -0.1998 
      2 C         -83.6392   25.5935  -72.3178 C.2       0 UNK         0.4909 
      3 O         -82.5727   25.0184  -72.5368 O.2       0 UNK        -0.5240 
      4 N         -83.8407   26.8941  -72.5753 N.am      1 UNK        -0.4739 
      5 CA        -82.8836   27.8886  -73.0960 C.3       1 UNK         0.0864 
      6 C6        -81.6039   28.0568  -72.2367 C.3       11 UNK        -0.0881 
      7 S7        -81.9601   28.4983  -70.5000 S.3       11 UNK        -0.2682 
      8 C8        -80.8196   29.8976  -70.2212 C.3       11 UNK         0.0289 
      9 C9        -79.3721   29.5819  -70.5901 C.ar      11 UNK        -0.0687 
     10 C10       -78.7669   28.3937  -70.1672 C.ar      11 UNK        -0.0823 
     11 C11       -77.4613   28.0847  -70.5557 C.ar      11 UNK        -0.0830 
     12 C12       -76.7362   29.0005  -71.3214 C.ar      11 UNK        -0.1021 
     13 C13       -77.3243   30.1938  -71.7512 C.ar      11 UNK        -0.0753 
     14 C14       -78.6435   30.4768  -71.3812 C.ar      11 UNK        -0.0933 
     15 C15       -76.5454   31.1758  -72.6194 C.3       11 UNK         0.0166 
     16 S16       -76.1004   30.4617  -74.2388 S.3       11 UNK        -0.2615 
     17 C17       -74.4905   29.6762  -73.8754 C.3       11 UNK        -0.0865 
     18 CA        -73.4225   29.9997  -74.9520 C.3       10 UNK         0.0862 
     19 C         -71.9896   29.6385  -74.4541 C.2       10 UNK         0.5551 
     20 N         -71.2234   28.7886  -75.1283 N.am      10 UNK        -0.7319 
     21 O         -71.5572   30.1520  -73.4257 O.2       10 UNK        -0.5018 
     22 N         -73.7871   29.4020  -76.2437 N.am      10 UNK        -0.4509 
     23 C         -73.3477   29.8055  -77.4422 C.2       10 UNK         0.4899 
     24 O         -72.6689   30.8182  -77.6199 O.2       10 UNK        -0.4839 
     25 CA        -73.7160   28.8941  -78.6332 C.3       9 UNK         0.0222 
     26 CB        -72.8301   29.1348  -79.8737 C.3       9 UNK        -0.1966 
     27 N         -73.7291   27.4705  -78.2644 N.am      9 UNK        -0.4218 
     28 C         -72.7142   26.7621  -77.7508 C.2       9 UNK         0.5020 
     29 O         -71.5739   27.2093  -77.6072 O.2       9 UNK        -0.5274 
     30 CA        -73.0671   25.3489  -77.2598 C.3       8 UNK         0.0270 
     31 CB        -72.9933   24.2992  -78.3859 C.3       8 UNK        -0.1976 
     32 N         -72.2831   24.9904  -76.0726 N.am      8 UNK        -0.4313 
     33 C         -70.9998   24.6043  -75.9820 C.2       8 UNK         0.5041 
     34 O         -70.3017   24.2803  -76.9443 O.2       8 UNK        -0.5577 
     35 CA        -70.3613   24.5951  -74.5761 C.3       7 UNK         0.0284 
     36 CB        -69.0476   25.3979  -74.5634 C.3       7 UNK        -0.1958 
     37 N         -71.2455   25.1370  -73.5395 N.am      7 UNK        -0.4454 
     38 C         -72.1467   24.4237  -72.8545 C.2       7 UNK         0.5089 
     39 O         -72.2888   23.2063  -72.9786 O.2       7 UNK        -0.5125 
     40 CA        -73.0717   25.1860  -71.8850 C.3       6 UNK         0.0408 
     41 CB        -72.7614   26.6959  -71.7465 C.3       6 UNK        -0.1791 
     42 N         -74.4776   24.9651  -72.2402 N.am      6 UNK        -0.4762 
     43 C         -75.0801   25.2995  -73.3915 C.2       6 UNK         0.5007 
     44 O         -74.5314   25.9491  -74.2872 O.2       6 UNK        -0.5032 
     45 CA        -76.5453   24.8319  -73.5499 C.3       5 UNK         0.0783 
     46 C46       -77.5291   25.7621  -72.7967 C.3       11 UNK        -0.0857 
     47 S47       -77.6829   25.3508  -71.0207 S.3       11 UNK        -0.2512 
     48 C48       -76.8468   26.7433  -70.1860 C.3       11 UNK         0.0225 
     49 N         -76.9309   24.6758  -74.9583 N.am      5 UNK        -0.4615 
     50 C         -76.4089   23.7647  -75.7944 C.2       4 UNK         0.5053 
     51 O         -75.5610   22.9412  -75.4494 O.2       4 UNK        -0.5105 
     52 CA        -76.9221   23.7214  -77.2488 C.3       4 UNK         0.0263 
     53 CB        -77.6584   22.3986  -77.5218 C.3       4 UNK        -0.1981 
     54 N         -77.8116   24.8292  -77.6003 N.am      4 UNK        -0.4224 
     55 C         -77.4186   26.0767  -77.8878 C.2       3 UNK         0.4895 
     56 O         -76.2394   26.4170  -77.9546 O.2       3 UNK        -0.5091 
     57 CA        -78.5123   27.1315  -78.1455 C.3       3 UNK         0.0250 
     58 CB        -78.5281   27.5335  -79.6294 C.3       3 UNK        -0.1996 
     59 N         -79.8652   26.7257  -77.7422 N.am      3 UNK        -0.4254 
     60 C         -80.2520   26.4962  -76.4802 C.2       2 UNK         0.5004 
     61 O         -79.4897   26.5535  -75.5122 O.2       2 UNK        -0.5226 
     62 CA        -81.7121   26.0554  -76.2864 C.3       2 UNK         0.0269 
     63 CB        -81.8337   24.5305  -76.4433 C.3       2 UNK        -0.1926 
     64 N         -82.2114   26.4317  -74.9653 N.am      2 UNK        -0.4687 
     65 C         -82.5084   27.6769  -74.5785 C.2       1 UNK         0.5165 
     66 O         -82.5031   28.6429  -75.3436 O.2       1 UNK        -0.5079 
     67 H67       -85.0780   23.9928  -72.4132 H         1 UNK         0.0900 
     68 H68       -84.5381   24.3853  -70.7785 H         1 UNK         0.0900 
     69 H69       -85.6909   25.4360  -71.6029 H         1 UNK         0.0900 
     70 H70       -84.7589   27.2729  -72.3884 H         1 UNK         0.2959 
     71 H71       -83.4171   28.8402  -73.0617 H         1 UNK         0.1079 
     72 H72       -81.0030   27.1454  -72.2415 H         1 UNK         0.0837 
     73 H73       -80.9695   28.8292  -72.6756 H         1 UNK         0.0837 
     74 H74       -81.1838   30.7548  -70.7896 H         1 UNK         0.0685 
     75 H75       -80.8615   30.1830  -69.1694 H         1 UNK         0.0685 
     76 H76       -79.3276   27.6854  -69.5726 H         1 UNK         0.1434 
     77 H77       -75.7228   28.7652  -71.6096 H         1 UNK         0.1329 
     78 H78       -79.1075   31.3945  -71.7161 H         1 UNK         0.1335 
     79 H79       -75.6559   31.5166  -72.0884 H         1 UNK         0.0680 
     80 H80       -77.1424   32.0704  -72.8030 H         1 UNK         0.0680 
     81 H81       -74.1488   30.0074  -72.8935 H         1 UNK         0.1032 
     82 H82       -74.6384   28.5984  -73.7951 H         1 UNK         0.1032 
     83 H83       -73.4115   31.0833  -75.0848 H         1 UNK         0.0461 
     84 H84       -70.2915   28.6127  -74.7916 H         1 UNK         0.3453 
     85 H85       -71.5242   28.3750  -76.0044 H         1 UNK         0.3453 
     86 H86       -74.3407   28.5593  -76.1961 H         1 UNK         0.2984 
     87 H87       -74.7421   29.1466  -78.9043 H         1 UNK         0.0554 
     88 H88       -72.9212   30.1629  -80.2259 H         1 UNK         0.0847 
     89 H89       -73.1182   28.4840  -80.6991 H         1 UNK         0.0847 
     90 H90       -71.7756   28.9579  -79.6594 H         1 UNK         0.0847 
     91 H91       -74.6521   27.0296  -78.2756 H         1 UNK         0.3141 
     92 H92       -74.0973   25.3736  -76.9060 H         1 UNK         0.0743 
     93 H93       -72.0187   24.2896  -78.8743 H         1 UNK         0.0784 
     94 H94       -73.1943   23.2969  -78.0075 H         1 UNK         0.0784 
     95 H95       -73.7351   24.5107  -79.1568 H         1 UNK         0.0784 
     96 H96       -72.7527   25.2238  -75.2047 H         1 UNK         0.3213 
     97 H97       -70.1221   23.5558  -74.3402 H         1 UNK         0.0855 
     98 H98       -69.2080   26.4375  -74.8503 H         1 UNK         0.0814 
     99 H99       -68.3243   24.9769  -75.2631 H         1 UNK         0.0814 
    100 H100      -68.5828   25.3866  -73.5774 H         1 UNK         0.0814 
    101 H101      -71.2072   26.1353  -73.3907 H         1 UNK         0.3105 
    102 H102      -72.9261   24.7309  -70.9043 H         1 UNK         0.0547 
    103 H103      -71.7460   26.8576  -71.3824 H         1 UNK         0.0837 
    104 H104      -72.8644   27.2330  -72.6887 H         1 UNK         0.0837 
    105 H105      -73.4297   27.1685  -71.0275 H         1 UNK         0.0837 
    106 H106      -75.0060   24.4200  -71.5725 H         1 UNK         0.3020 
    107 H107      -76.6151   23.8318  -73.1153 H         1 UNK         0.1245 
    108 H108      -78.5343   25.6456  -73.2046 H         1 UNK         0.0781 
    109 H109      -77.2811   26.8130  -72.9510 H         1 UNK         0.0781 
    110 H110      -75.7840   26.7221  -70.4273 H         1 UNK         0.0836 
    111 H111      -76.9164   26.6020  -69.1066 H         1 UNK         0.0836 
    112 H112      -77.6230   25.3273  -75.3075 H         1 UNK         0.3022 
    113 H113      -76.0458   23.7619  -77.8991 H         1 UNK         0.0747 
    114 H114      -77.9707   22.3254  -78.5638 H         1 UNK         0.0793 
    115 H115      -77.0138   21.5419  -77.3198 H         1 UNK         0.0793 
    116 H116      -78.5454   22.2933  -76.8957 H         1 UNK         0.0793 
    117 H117      -78.8023   24.6409  -77.5722 H         1 UNK         0.3047 
    118 H118      -78.2429   28.0114  -77.5569 H         1 UNK         0.0822 
    119 H119      -79.2287   28.3482  -79.8135 H         1 UNK         0.0807 
    120 H120      -78.8068   26.6970  -80.2715 H         1 UNK         0.0807 
    121 H121      -77.5445   27.8781  -79.9526 H         1 UNK         0.0807 
    122 H122      -80.5441   26.6334  -78.4848 H         1 UNK         0.2946 
    123 H123      -82.3324   26.5437  -77.0417 H         1 UNK         0.1144 
    124 H124      -82.8659   24.2015  -76.3208 H         1 UNK         0.0793 
    125 H125      -81.2255   24.0004  -75.7087 H         1 UNK         0.0793 
    126 H126      -81.5088   24.2074  -77.4331 H         1 UNK         0.0793 
    127 H127      -82.2089   25.7157  -74.2430 H         1 UNK         0.2896 
@<TRIPOS>BOND
     1    1    2 1    
     2    1   67 1    
     3    1   68 1    
     4    1   69 1    
     5    2    3 2    
     6    2    4 am   BACKBONE|DICT|INTERRES
     7    4    5 1    
     8    4   70 1    
     9    5    6 1    
    10    5   65 1    
    11    5   71 1    
    12    6    7 1    
    13    6   72 1    
    14    6   73 1    
    15    7    8 1    
    16    8    9 1    
    17    8   74 1    
    18    8   75 1    
    19    9   10 ar   
    20    9   14 ar   
    21   10   11 ar   
    22   10   76 1    
    23   11   12 ar   
    24   11   48 1    
    25   12   13 ar   
    26   12   77 1    
    27   13   14 ar   
    28   13   15 1    
    29   14   78 1    
    30   15   16 1    
    31   15   79 1    
    32   15   80 1    
    33   16   17 1    
    34   17   18 1    
    35   17   81 1    
    36   17   82 1    
    37   18   19 1    
    38   18   22 1    
    39   18   83 1    
    40   19   20 am   BACKBONE|DICT|INTERRES
    41   19   21 2    
    42   20   84 1    
    43   20   85 1    
    44   22   23 am   BACKBONE|DICT|INTERRES
    45   22   86 1    
    46   23   24 2    
    47   23   25 1    
    48   25   26 1    
    49   25   27 1    
    50   25   87 1    
    51   26   88 1    
    52   26   89 1    
    53   26   90 1    
    54   27   28 am   BACKBONE|DICT|INTERRES
    55   27   91 1    
    56   28   29 2    
    57   28   30 1    
    58   30   31 1    
    59   30   32 1    
    60   30   92 1    
    61   31   93 1    
    62   31   94 1    
    63   31   95 1    
    64   32   33 am   BACKBONE|DICT|INTERRES
    65   32   96 1    
    66   33   34 2    
    67   33   35 1    
    68   35   36 1    
    69   35   37 1    
    70   35   97 1    
    71   36   98 1    
    72   36   99 1    
    73   36  100 1    
    74   37   38 am   BACKBONE|DICT|INTERRES
    75   37  101 1    
    76   38   39 2    
    77   38   40 1    
    78   40   41 1    
    79   40   42 1    
    80   40  102 1    
    81   41  103 1    
    82   41  104 1    
    83   41  105 1    
    84   42   43 am   BACKBONE|DICT|INTERRES
    85   42  106 1    
    86   43   44 2    
    87   43   45 1    
    88   45   46 1    
    89   45   49 1    
    90   45  107 1    
    91   46   47 1    
    92   46  108 1    
    93   46  109 1    
    94   47   48 1    
    95   48  110 1    
    96   48  111 1    
    97   49   50 am   BACKBONE|DICT|INTERRES
    98   49  112 1    
    99   50   51 2    
   100   50   52 1    
   101   52   53 1    
   102   52   54 1    
   103   52  113 1    
   104   53  114 1    
   105   53  115 1    
   106   53  116 1    
   107   54   55 am   BACKBONE|DICT|INTERRES
   108   54  117 1    
   109   55   56 2    
   110   55   57 1    
   111   57   58 1    
   112   57   59 1    
   113   57  118 1    
   114   58  119 1    
   115   58  120 1    
   116   58  121 1    
   117   59   60 am   BACKBONE|DICT|INTERRES
   118   59  122 1    
   119   60   61 2    
   120   60   62 1    
   121   62   63 1    
   122   62   64 1    
   123   62  123 1    
   124   63  124 1    
   125   63  125 1    
   126   63  126 1    
   127   64   65 am   BACKBONE|DICT|INTERRES
   128   64  127 1    
   129   65   66 2    
@<TRIPOS>SUBSTRUCTURE
     1 UNK         1 GROUP             0       ****    0 ROOT    
