@<TRIPOS>MOLECULE
3R135
127   129    1
SMALL
USER_CHARGES


@<TRIPOS>ATOM
      1 CA        -81.6104   23.4797  -70.6813 C.3       0 UNK        -0.1998 
      2 C         -82.0140   24.5486  -71.6854 C.2       0 UNK         0.4909 
      3 O         -83.1044   24.4767  -72.2549 O.2       0 UNK        -0.5240 
      4 N         -81.1457   25.5436  -71.9063 N.am      1 UNK        -0.4739 
      5 CA        -81.3394   26.6350  -72.8670 C.3       1 UNK         0.0864 
      6 C6        -80.5168   27.8906  -72.4886 C.3       11 UNK        -0.0881 
      7 S7        -80.9606   28.5380  -70.8390 S.3       11 UNK        -0.2682 
      8 C8        -80.3176   30.2425  -70.9192 C.3       11 UNK         0.0289 
      9 C9        -78.8609   30.2830  -71.3587 C.ar      11 UNK        -0.0687 
     10 C10       -78.5117   30.8763  -72.5756 C.ar      11 UNK        -0.0823 
     11 C11       -77.1882   30.8464  -73.0282 C.ar      11 UNK        -0.0830 
     12 C12       -76.2065   30.2598  -72.2248 C.ar      11 UNK        -0.1021 
     13 C13       -76.5399   29.6783  -70.9982 C.ar      11 UNK        -0.0753 
     14 C14       -77.8688   29.6950  -70.5681 C.ar      11 UNK        -0.0933 
     15 C15       -75.4607   29.0240  -70.1511 C.3       11 UNK         0.0166 
     16 S16       -74.8301   27.5202  -70.9600 S.3       11 UNK        -0.2615 
     17 C17       -73.0411   27.6435  -70.6109 C.3       11 UNK        -0.0865 
     18 CA        -72.3029   28.7347  -71.4379 C.3       10 UNK         0.0862 
     19 C         -70.7706   28.6978  -71.1581 C.2       10 UNK         0.5551 
     20 N         -69.9120   28.4457  -72.1403 N.am      10 UNK        -0.7319 
     21 O         -70.3540   28.9057  -70.0213 O.2       10 UNK        -0.5018 
     22 N         -72.6664   28.6883  -72.8607 N.am      10 UNK        -0.4509 
     23 C         -72.4910   29.6833  -73.7394 C.2       10 UNK         0.4899 
     24 O         -72.0844   30.8048  -73.4335 O.2       10 UNK        -0.4839 
     25 CA        -72.8330   29.3575  -75.2071 C.3       9 UNK         0.0222 
     26 CB        -72.1047   30.2741  -76.2118 C.3       9 UNK        -0.1966 
     27 N         -72.6298   27.9408  -75.5470 N.am      9 UNK        -0.4218 
     28 C         -71.4823   27.2496  -75.4478 C.2       9 UNK         0.5020 
     29 O         -70.4132   27.7431  -75.0851 O.2       9 UNK        -0.5274 
     30 CA        -71.5353   25.7442  -75.7365 C.3       8 UNK         0.0270 
     31 CB        -71.6178   24.9668  -74.4108 C.3       8 UNK        -0.1976 
     32 N         -72.6793   25.3676  -76.5696 N.am      8 UNK        -0.4313 
     33 C         -72.5960   24.9730  -77.8457 C.2       8 UNK         0.5041 
     34 O         -71.5534   24.9714  -78.5016 O.2       8 UNK        -0.5577 
     35 CA        -73.8898   24.4579  -78.4896 C.3       7 UNK         0.0284 
     36 CB        -74.3703   23.1704  -77.7984 C.3       7 UNK        -0.1958 
     37 N         -74.9587   25.4563  -78.4629 N.am      7 UNK        -0.4454 
     38 C         -75.1933   26.3366  -79.4455 C.2       7 UNK         0.5089 
     39 O         -74.4834   26.4568  -80.4443 O.2       7 UNK        -0.5125 
     40 CA        -76.4599   27.2034  -79.3212 C.3       6 UNK         0.0408 
     41 CB        -77.6125   26.5735  -80.1202 C.3       6 UNK        -0.1791 
     42 N         -76.8935   27.4027  -77.9363 N.am      6 UNK        -0.4762 
     43 C         -76.3224   28.2704  -77.0897 C.2       6 UNK         0.5007 
     44 O         -75.3724   28.9914  -77.3907 O.2       6 UNK        -0.5032 
     45 CA        -76.8828   28.2985  -75.6531 C.3       5 UNK         0.0783 
     46 C46       -78.1594   29.1661  -75.5443 C.3       11 UNK        -0.0857 
     47 S47       -77.9089   30.9644  -75.7587 S.3       11 UNK        -0.2512 
     48 C48       -76.8016   31.4373  -74.3810 C.3       11 UNK         0.0225 
     49 N         -77.1308   26.9509  -75.1305 N.am      5 UNK        -0.4615 
     50 C         -76.1873   26.0241  -74.9135 C.2       4 UNK         0.5053 
     51 O         -74.9957   26.1826  -75.1832 O.2       4 UNK        -0.5105 
     52 CA        -76.6628   24.6701  -74.3813 C.3       4 UNK         0.0263 
     53 CB        -77.2731   24.7940  -72.9741 C.3       4 UNK        -0.1981 
     54 N         -77.6408   24.1101  -75.3130 N.am      4 UNK        -0.4224 
     55 C         -77.5835   22.8873  -75.8593 C.2       3 UNK         0.4895 
     56 O         -76.7291   22.0502  -75.5662 O.2       3 UNK        -0.5091 
     57 CA        -78.6275   22.5513  -76.9487 C.3       3 UNK         0.0250 
     58 CB        -79.0219   21.0583  -76.9525 C.3       3 UNK        -0.1996 
     59 N         -79.8157   23.4183  -76.9301 N.am      3 UNK        -0.4254 
     60 C         -80.7185   23.5201  -75.9444 C.2       2 UNK         0.5004 
     61 O         -80.7242   22.8207  -74.9288 O.2       2 UNK        -0.5226 
     62 CA        -81.7799   24.6197  -76.1092 C.3       2 UNK         0.0269 
     63 CB        -83.1284   24.0169  -76.5336 C.3       2 UNK        -0.1926 
     64 N         -81.9509   25.3566  -74.8574 N.am      2 UNK        -0.4687 
     65 C         -81.0140   26.1245  -74.2855 C.2       1 UNK         0.5165 
     66 O         -79.9225   26.3760  -74.8083 O.2       1 UNK        -0.5079 
     67 H67       -82.3458   23.4205  -69.8796 H         1 UNK         0.0900 
     68 H68       -81.5598   22.5078  -71.1717 H         1 UNK         0.0900 
     69 H69       -80.6375   23.6858  -70.2353 H         1 UNK         0.0900 
     70 H70       -80.2692   25.5579  -71.4055 H         1 UNK         0.2959 
     71 H71       -82.3927   26.9260  -72.8608 H         1 UNK         0.1079 
     72 H72       -79.4466   27.6739  -72.4971 H         1 UNK         0.0837 
     73 H73       -80.6800   28.6803  -73.2244 H         1 UNK         0.0837 
     74 H74       -80.9453   30.8246  -71.5957 H         1 UNK         0.0685 
     75 H75       -80.4111   30.7055  -69.9360 H         1 UNK         0.0685 
     76 H76       -79.2763   31.3293  -73.1917 H         1 UNK         0.1434 
     77 H77       -75.1779   30.2377  -72.5561 H         1 UNK         0.1329 
     78 H78       -78.1394   29.2313  -69.6293 H         1 UNK         0.1335 
     79 H79       -75.8411   28.7609  -69.1630 H         1 UNK         0.0680 
     80 H80       -74.6593   29.7444  -69.9878 H         1 UNK         0.0680 
     81 H81       -72.9057   27.8179  -69.5416 H         1 UNK         0.1032 
     82 H82       -72.6039   26.6632  -70.8104 H         1 UNK         0.1032 
     83 H83       -72.6358   29.7048  -71.0663 H         1 UNK         0.0461 
     84 H84       -68.9256   28.4295  -71.9364 H         1 UNK         0.3453 
     85 H85       -70.2306   28.2821  -73.0883 H         1 UNK         0.3453 
     86 H86       -73.0269   27.8070  -73.1940 H         1 UNK         0.2984 
     87 H87       -73.9000   29.5487  -75.3048 H         1 UNK         0.0554 
     88 H88       -72.3899   30.0384  -77.2371 H         1 UNK         0.0847 
     89 H89       -71.0210   30.1827  -76.1333 H         1 UNK         0.0847 
     90 H90       -72.3564   31.3215  -76.0413 H         1 UNK         0.0847 
     91 H91       -73.4693   27.4255  -75.7869 H         1 UNK         0.3141 
     92 H92       -70.5984   25.4754  -76.2291 H         1 UNK         0.0743 
     93 H93       -72.5350   25.1917  -73.8645 H         1 UNK         0.0784 
     94 H94       -71.5867   23.8907  -74.5822 H         1 UNK         0.0784 
     95 H95       -70.7792   25.2138  -73.7578 H         1 UNK         0.0784 
     96 H96       -73.5889   25.3955  -76.1157 H         1 UNK         0.3213 
     97 H97       -73.6623   24.2020  -79.5273 H         1 UNK         0.0855 
     98 H98       -74.6195   23.3355  -76.7500 H         1 UNK         0.0814 
     99 H99       -73.5974   22.4012  -77.8290 H         1 UNK         0.0814 
    100 H100      -75.2516   22.7598  -78.2913 H         1 UNK         0.0814 
    101 H101      -75.5703   25.4634  -77.6617 H         1 UNK         0.3105 
    102 H102      -76.2378   28.1779  -79.7619 H         1 UNK         0.0547 
    103 H103      -78.5010   27.2047  -80.1011 H         1 UNK         0.0837 
    104 H104      -77.3344   26.4428  -81.1671 H         1 UNK         0.0837 
    105 H105      -77.8871   25.5917  -79.7329 H         1 UNK         0.0837 
    106 H106      -77.6804   26.8588  -77.6140 H         1 UNK         0.3020 
    107 H107      -76.1150   28.7360  -75.0137 H         1 UNK         0.1245 
    108 H108      -78.6252   29.0105  -74.5720 H         1 UNK         0.0781 
    109 H109      -78.9075   28.8388  -76.2689 H         1 UNK         0.0781 
    110 H110      -76.7966   32.5247  -74.2971 H         1 UNK         0.0836 
    111 H111      -75.7833   31.1519  -74.6485 H         1 UNK         0.0836 
    112 H112      -78.0995   26.7397  -74.9016 H         1 UNK         0.3022 
    113 H113      -75.7849   24.0237  -74.3149 H         1 UNK         0.0747 
    114 H114      -77.5567   23.8165  -72.5839 H         1 UNK         0.0793 
    115 H115      -76.5561   25.2269  -72.2753 H         1 UNK         0.0793 
    116 H116      -78.1615   25.4246  -72.9623 H         1 UNK         0.0793 
    117 H117      -78.4000   24.7191  -75.5858 H         1 UNK         0.3047 
    118 H118      -78.1288   22.7534  -77.8979 H         1 UNK         0.0822 
    119 H119      -79.4497   20.7481  -75.9989 H         1 UNK         0.0807 
    120 H120      -78.1537   20.4244  -77.1374 H         1 UNK         0.0807 
    121 H121      -79.7501   20.8416  -77.7340 H         1 UNK         0.0807 
    122 H122      -79.9173   24.0246  -77.7329 H         1 UNK         0.2946 
    123 H123      -81.4544   25.3272  -76.8753 H         1 UNK         0.1144 
    124 H124      -83.0353   23.4755  -77.4761 H         1 UNK         0.0793 
    125 H125      -83.5075   23.3145  -75.7897 H         1 UNK         0.0793 
    126 H126      -83.8819   24.7914  -76.6782 H         1 UNK         0.0793 
    127 H127      -82.7507   25.1037  -74.2885 H         1 UNK         0.2896 
@<TRIPOS>BOND
     1    1    2 1    
     2    1   67 1    
     3    1   68 1    
     4    1   69 1    
     5    2    3 2    
     6    2    4 am   BACKBONE|DICT|INTERRES
     7    4    5 1    
     8    4   70 1    
     9    5    6 1    
    10    5   65 1    
    11    5   71 1    
    12    6    7 1    
    13    6   72 1    
    14    6   73 1    
    15    7    8 1    
    16    8    9 1    
    17    8   74 1    
    18    8   75 1    
    19    9   10 ar   
    20    9   14 ar   
    21   10   11 ar   
    22   10   76 1    
    23   11   12 ar   
    24   11   48 1    
    25   12   13 ar   
    26   12   77 1    
    27   13   14 ar   
    28   13   15 1    
    29   14   78 1    
    30   15   16 1    
    31   15   79 1    
    32   15   80 1    
    33   16   17 1    
    34   17   18 1    
    35   17   81 1    
    36   17   82 1    
    37   18   19 1    
    38   18   22 1    
    39   18   83 1    
    40   19   20 am   BACKBONE|DICT|INTERRES
    41   19   21 2    
    42   20   84 1    
    43   20   85 1    
    44   22   23 am   BACKBONE|DICT|INTERRES
    45   22   86 1    
    46   23   24 2    
    47   23   25 1    
    48   25   26 1    
    49   25   27 1    
    50   25   87 1    
    51   26   88 1    
    52   26   89 1    
    53   26   90 1    
    54   27   28 am   BACKBONE|DICT|INTERRES
    55   27   91 1    
    56   28   29 2    
    57   28   30 1    
    58   30   31 1    
    59   30   32 1    
    60   30   92 1    
    61   31   93 1    
    62   31   94 1    
    63   31   95 1    
    64   32   33 am   BACKBONE|DICT|INTERRES
    65   32   96 1    
    66   33   34 2    
    67   33   35 1    
    68   35   36 1    
    69   35   37 1    
    70   35   97 1    
    71   36   98 1    
    72   36   99 1    
    73   36  100 1    
    74   37   38 am   BACKBONE|DICT|INTERRES
    75   37  101 1    
    76   38   39 2    
    77   38   40 1    
    78   40   41 1    
    79   40   42 1    
    80   40  102 1    
    81   41  103 1    
    82   41  104 1    
    83   41  105 1    
    84   42   43 am   BACKBONE|DICT|INTERRES
    85   42  106 1    
    86   43   44 2    
    87   43   45 1    
    88   45   46 1    
    89   45   49 1    
    90   45  107 1    
    91   46   47 1    
    92   46  108 1    
    93   46  109 1    
    94   47   48 1    
    95   48  110 1    
    96   48  111 1    
    97   49   50 am   BACKBONE|DICT|INTERRES
    98   49  112 1    
    99   50   51 2    
   100   50   52 1    
   101   52   53 1    
   102   52   54 1    
   103   52  113 1    
   104   53  114 1    
   105   53  115 1    
   106   53  116 1    
   107   54   55 am   BACKBONE|DICT|INTERRES
   108   54  117 1    
   109   55   56 2    
   110   55   57 1    
   111   57   58 1    
   112   57   59 1    
   113   57  118 1    
   114   58  119 1    
   115   58  120 1    
   116   58  121 1    
   117   59   60 am   BACKBONE|DICT|INTERRES
   118   59  122 1    
   119   60   61 2    
   120   60   62 1    
   121   62   63 1    
   122   62   64 1    
   123   62  123 1    
   124   63  124 1    
   125   63  125 1    
   126   63  126 1    
   127   64   65 am   BACKBONE|DICT|INTERRES
   128   64  127 1    
   129   65   66 2    
@<TRIPOS>SUBSTRUCTURE
     1 UNK         1 GROUP             0       ****    0 ROOT    
