@<TRIPOS>MOLECULE
3R135
127   129    1
SMALL
USER_CHARGES


@<TRIPOS>ATOM
      1 CA        -80.6645   25.3283  -71.0779 C.3       0 UNK        -0.1998 
      2 C         -81.5877   26.1064  -72.0032 C.2       0 UNK         0.4909 
      3 O         -82.4950   26.7923  -71.5346 O.2       0 UNK        -0.5240 
      4 N         -81.3754   25.9861  -73.3184 N.am      1 UNK        -0.4739 
      5 CA        -82.1615   26.6264  -74.3828 C.3       1 UNK         0.0864 
      6 C6        -81.2766   27.0622  -75.5948 C.3       11 UNK        -0.0881 
      7 S7        -79.5867   27.6502  -75.2207 S.3       11 UNK        -0.2682 
      8 C8        -79.8626   29.0511  -74.0894 C.3       11 UNK         0.0289 
      9 C9        -78.6473   29.2411  -73.1946 C.ar      11 UNK        -0.0687 
     10 C10       -78.3253   28.2502  -72.2662 C.ar      11 UNK        -0.0823 
     11 C11       -77.1757   28.3483  -71.4816 C.ar      11 UNK        -0.0830 
     12 C12       -76.3765   29.4894  -71.5828 C.ar      11 UNK        -0.1021 
     13 C13       -76.6984   30.5051  -72.4901 C.ar      11 UNK        -0.0753 
     14 C14       -77.8327   30.3726  -73.2998 C.ar      11 UNK        -0.0933 
     15 C15       -75.8238   31.7466  -72.5940 C.3       11 UNK         0.0166 
     16 S16       -74.3915   31.4776  -73.6849 S.3       11 UNK        -0.2615 
     17 C17       -73.3064   30.4636  -72.6202 C.3       11 UNK        -0.0865 
     18 CA        -71.8021   30.6753  -72.9296 C.3       10 UNK         0.0862 
     19 C         -70.9015   29.9841  -71.8603 C.2       10 UNK         0.5551 
     20 N         -69.9841   29.0916  -72.2167 N.am      10 UNK        -0.7319 
     21 O         -71.0344   30.2734  -70.6738 O.2       10 UNK        -0.5018 
     22 N         -71.4946   30.3041  -74.3168 N.am      10 UNK        -0.4509 
     23 C         -70.4366   30.7230  -75.0194 C.2       10 UNK         0.4899 
     24 O         -69.6276   31.5603  -74.6166 O.2       10 UNK        -0.4839 
     25 CA        -70.2551   30.0574  -76.3964 C.3       9 UNK         0.0222 
     26 CB        -68.8558   30.2911  -77.0047 C.3       9 UNK        -0.1966 
     27 N         -70.5884   28.6259  -76.3653 N.am      9 UNK        -0.4218 
     28 C         -69.9964   27.6661  -75.6325 C.2       9 UNK         0.5020 
     29 O         -69.0440   27.8821  -74.8816 O.2       9 UNK        -0.5274 
     30 CA        -70.5774   26.2360  -75.6937 C.3       8 UNK         0.0270 
     31 CB        -70.8164   25.6803  -74.2780 C.3       8 UNK        -0.1976 
     32 N         -71.8284   26.1493  -76.4512 N.am      8 UNK        -0.4313 
     33 C         -71.9166   26.1234  -77.7896 C.2       8 UNK         0.5041 
     34 O         -70.9370   26.0533  -78.5322 O.2       8 UNK        -0.5577 
     35 CA        -73.3192   26.2496  -78.4154 C.3       7 UNK         0.0284 
     36 CB        -73.7726   24.9010  -78.9962 C.3       7 UNK        -0.1958 
     37 N         -74.3377   26.7648  -77.4905 N.am      7 UNK        -0.4454 
     38 C         -74.3365   28.0049  -76.9715 C.2       7 UNK         0.5089 
     39 O         -73.4783   28.8459  -77.2422 O.2       7 UNK        -0.5125 
     40 CA        -75.4333   28.3662  -75.9494 C.3       6 UNK         0.0408 
     41 CB        -76.5492   29.1605  -76.6442 C.3       6 UNK        -0.1791 
     42 N         -76.0168   27.2226  -75.2398 N.am      6 UNK        -0.4762 
     43 C         -75.3341   26.3319  -74.5016 C.2       6 UNK         0.5007 
     44 O         -74.1179   26.4045  -74.3154 O.2       6 UNK        -0.5032 
     45 CA        -76.1121   25.0900  -73.9943 C.3       5 UNK         0.0783 
     46 C46       -76.6640   25.1902  -72.5426 C.3       11 UNK        -0.0857 
     47 S47       -75.6251   26.0462  -71.2993 S.3       11 UNK        -0.2512 
     48 C48       -76.7960   27.2193  -70.5341 C.3       11 UNK         0.0225 
     49 N         -77.1845   24.7019  -74.9233 N.am      5 UNK        -0.4615 
     50 C         -77.0236   24.3423  -76.2014 C.2       4 UNK         0.5053 
     51 O         -75.9184   24.2187  -76.7276 O.2       4 UNK        -0.5105 
     52 CA        -78.3045   24.1431  -77.0376 C.3       4 UNK         0.0263 
     53 CB        -77.9970   23.9021  -78.5278 C.3       4 UNK        -0.1981 
     54 N         -79.1805   23.0692  -76.5568 N.am      4 UNK        -0.4224 
     55 C         -79.9383   23.1192  -75.4555 C.2       3 UNK         0.4895 
     56 O         -79.8798   24.0278  -74.6205 O.2       3 UNK        -0.5091 
     57 CA        -80.9437   21.9797  -75.2488 C.3       3 UNK         0.0250 
     58 CB        -80.3598   20.9006  -74.3236 C.3       3 UNK        -0.1996 
     59 N         -82.1197   22.5740  -74.6234 N.am      3 UNK        -0.4254 
     60 C         -83.3845   22.5059  -75.0585 C.2       2 UNK         0.5004 
     61 O         -83.7702   21.7485  -75.9491 O.2       2 UNK        -0.5226 
     62 CA        -84.3772   23.4914  -74.4075 C.3       2 UNK         0.0269 
     63 CB        -85.0548   22.8523  -73.1848 C.3       2 UNK        -0.1926 
     64 N         -83.6996   24.7279  -73.9999 N.am      2 UNK        -0.4687 
     65 C         -83.3006   25.6859  -74.8520 C.2       1 UNK         0.5165 
     66 O         -83.7444   25.7846  -75.9974 O.2       1 UNK        -0.5079 
     67 H67       -80.1740   26.0057  -70.3798 H         1 UNK         0.0900 
     68 H68       -79.8943   24.7895  -71.6299 H         1 UNK         0.0900 
     69 H69       -81.2371   24.6029  -70.5007 H         1 UNK         0.0900 
     70 H70       -80.6414   25.3704  -73.6641 H         1 UNK         0.2959 
     71 H71       -82.6450   27.5197  -73.9823 H         1 UNK         0.1079 
     72 H72       -81.1360   26.2248  -76.2817 H         1 UNK         0.0837 
     73 H73       -81.7903   27.8324  -76.1726 H         1 UNK         0.0837 
     74 H74       -80.7349   28.8726  -73.4611 H         1 UNK         0.0685 
     75 H75       -80.0716   29.9496  -74.6715 H         1 UNK         0.0685 
     76 H76       -78.9617   27.3831  -72.1869 H         1 UNK         0.1434 
     77 H77       -75.4967   29.5781  -70.9616 H         1 UNK         0.1329 
     78 H78       -78.0756   31.1461  -74.0153 H         1 UNK         0.1335 
     79 H79       -75.4879   32.0585  -71.6040 H         1 UNK         0.0680 
     80 H80       -76.4074   32.5796  -72.9888 H         1 UNK         0.0680 
     81 H81       -73.5806   29.4127  -72.7356 H         1 UNK         0.1032 
     82 H82       -73.5092   30.7218  -71.5794 H         1 UNK         0.1032 
     83 H83       -71.5989   31.7432  -72.8286 H         1 UNK         0.0461 
     84 H84       -69.4154   28.6668  -71.5020 H         1 UNK         0.3453 
     85 H85       -69.8218   28.8575  -73.1881 H         1 UNK         0.3453 
     86 H86       -72.1106   29.6261  -74.7395 H         1 UNK         0.2984 
     87 H87       -70.9851   30.5247  -77.0589 H         1 UNK         0.0554 
     88 H88       -68.7623   29.8136  -77.9799 H         1 UNK         0.0847 
     89 H89       -68.0635   29.9032  -76.3637 H         1 UNK         0.0847 
     90 H90       -68.6650   31.3556  -77.1463 H         1 UNK         0.0847 
     91 H91       -71.4078   28.3708  -76.9050 H         1 UNK         0.3141 
     92 H92       -69.8299   25.6069  -76.1813 H         1 UNK         0.0743 
     93 H93       -71.4918   26.3160  -73.7039 H         1 UNK         0.0784 
     94 H94       -71.2442   24.6781  -74.3094 H         1 UNK         0.0784 
     95 H95       -69.8820   25.6136  -73.7192 H         1 UNK         0.0784 
     96 H96       -72.6838   26.2089  -75.9079 H         1 UNK         0.3213 
     97 H97       -73.2396   26.9611  -79.2402 H         1 UNK         0.0855 
     98 H98       -73.7894   24.1196  -78.2358 H         1 UNK         0.0814 
     99 H99       -73.0929   24.5695  -79.7822 H         1 UNK         0.0814 
    100 H100      -74.7681   24.9667  -79.4353 H         1 UNK         0.0814 
    101 H101      -75.0432   26.1034  -77.1850 H         1 UNK         0.3105 
    102 H102      -74.9739   29.0077  -75.1965 H         1 UNK         0.0547 
    103 H103      -76.1438   30.0259  -77.1704 H         1 UNK         0.0837 
    104 H104      -77.0838   28.5528  -77.3752 H         1 UNK         0.0837 
    105 H105      -77.2755   29.5375  -75.9266 H         1 UNK         0.0837 
    106 H106      -77.0159   27.0968  -75.3317 H         1 UNK         0.3020 
    107 H107      -75.3827   24.2767  -74.0017 H         1 UNK         0.1245 
    108 H108      -76.8538   24.1834  -72.1676 H         1 UNK         0.0781 
    109 H109      -77.6426   25.6624  -72.5639 H         1 UNK         0.0781 
    110 H110      -76.3378   27.6354  -69.6356 H         1 UNK         0.0836 
    111 H111      -77.6838   26.6820  -70.1975 H         1 UNK         0.0836 
    112 H112      -78.1376   24.7237  -74.5712 H         1 UNK         0.3022 
    113 H113      -78.8620   25.0801  -76.9727 H         1 UNK         0.0747 
    114 H114      -78.9110   23.8529  -79.1201 H         1 UNK         0.0793 
    115 H115      -77.3931   24.7122  -78.9393 H         1 UNK         0.0793 
    116 H116      -77.4452   22.9738  -78.6814 H         1 UNK         0.0793 
    117 H117      -79.2585   22.2611  -77.1577 H         1 UNK         0.3047 
    118 H118      -81.2018   21.5414  -76.2153 H         1 UNK         0.0822 
    119 H119      -79.4773   20.4391  -74.7686 H         1 UNK         0.0807 
    120 H120      -81.0834   20.1064  -74.1389 H         1 UNK         0.0807 
    121 H121      -80.0624   21.3125  -73.3581 H         1 UNK         0.0807 
    122 H122      -81.8988   23.2712  -73.9271 H         1 UNK         0.2946 
    123 H123      -85.1458   23.7305  -75.1464 H         1 UNK         0.1144 
    124 H124      -85.5820   21.9394  -73.4656 H         1 UNK         0.0793 
    125 H125      -85.7888   23.5258  -72.7420 H         1 UNK         0.0793 
    126 H126      -84.3325   22.5870  -72.4117 H         1 UNK         0.0793 
    127 H127      -83.3343   24.7610  -73.0590 H         1 UNK         0.2896 
@<TRIPOS>BOND
     1    1    2 1    
     2    1   67 1    
     3    1   68 1    
     4    1   69 1    
     5    2    3 2    
     6    2    4 am   BACKBONE|DICT|INTERRES
     7    4    5 1    
     8    4   70 1    
     9    5    6 1    
    10    5   65 1    
    11    5   71 1    
    12    6    7 1    
    13    6   72 1    
    14    6   73 1    
    15    7    8 1    
    16    8    9 1    
    17    8   74 1    
    18    8   75 1    
    19    9   10 ar   
    20    9   14 ar   
    21   10   11 ar   
    22   10   76 1    
    23   11   12 ar   
    24   11   48 1    
    25   12   13 ar   
    26   12   77 1    
    27   13   14 ar   
    28   13   15 1    
    29   14   78 1    
    30   15   16 1    
    31   15   79 1    
    32   15   80 1    
    33   16   17 1    
    34   17   18 1    
    35   17   81 1    
    36   17   82 1    
    37   18   19 1    
    38   18   22 1    
    39   18   83 1    
    40   19   20 am   BACKBONE|DICT|INTERRES
    41   19   21 2    
    42   20   84 1    
    43   20   85 1    
    44   22   23 am   BACKBONE|DICT|INTERRES
    45   22   86 1    
    46   23   24 2    
    47   23   25 1    
    48   25   26 1    
    49   25   27 1    
    50   25   87 1    
    51   26   88 1    
    52   26   89 1    
    53   26   90 1    
    54   27   28 am   BACKBONE|DICT|INTERRES
    55   27   91 1    
    56   28   29 2    
    57   28   30 1    
    58   30   31 1    
    59   30   32 1    
    60   30   92 1    
    61   31   93 1    
    62   31   94 1    
    63   31   95 1    
    64   32   33 am   BACKBONE|DICT|INTERRES
    65   32   96 1    
    66   33   34 2    
    67   33   35 1    
    68   35   36 1    
    69   35   37 1    
    70   35   97 1    
    71   36   98 1    
    72   36   99 1    
    73   36  100 1    
    74   37   38 am   BACKBONE|DICT|INTERRES
    75   37  101 1    
    76   38   39 2    
    77   38   40 1    
    78   40   41 1    
    79   40   42 1    
    80   40  102 1    
    81   41  103 1    
    82   41  104 1    
    83   41  105 1    
    84   42   43 am   BACKBONE|DICT|INTERRES
    85   42  106 1    
    86   43   44 2    
    87   43   45 1    
    88   45   46 1    
    89   45   49 1    
    90   45  107 1    
    91   46   47 1    
    92   46  108 1    
    93   46  109 1    
    94   47   48 1    
    95   48  110 1    
    96   48  111 1    
    97   49   50 am   BACKBONE|DICT|INTERRES
    98   49  112 1    
    99   50   51 2    
   100   50   52 1    
   101   52   53 1    
   102   52   54 1    
   103   52  113 1    
   104   53  114 1    
   105   53  115 1    
   106   53  116 1    
   107   54   55 am   BACKBONE|DICT|INTERRES
   108   54  117 1    
   109   55   56 2    
   110   55   57 1    
   111   57   58 1    
   112   57   59 1    
   113   57  118 1    
   114   58  119 1    
   115   58  120 1    
   116   58  121 1    
   117   59   60 am   BACKBONE|DICT|INTERRES
   118   59  122 1    
   119   60   61 2    
   120   60   62 1    
   121   62   63 1    
   122   62   64 1    
   123   62  123 1    
   124   63  124 1    
   125   63  125 1    
   126   63  126 1    
   127   64   65 am   BACKBONE|DICT|INTERRES
   128   64  127 1    
   129   65   66 2    
@<TRIPOS>SUBSTRUCTURE
     1 UNK         1 GROUP             0       ****    0 ROOT    
