@<TRIPOS>MOLECULE
3R135
127   129    1
SMALL
USER_CHARGES


@<TRIPOS>ATOM
      1 CA        -80.9698   25.7025  -69.1085 C.3       0 UNK        -0.1998 
      2 C         -81.1776   25.5884  -70.6107 C.2       0 UNK         0.4909 
      3 O         -80.2064   25.3700  -71.3335 O.2       0 UNK        -0.5240 
      4 N         -82.4359   25.7253  -71.0608 N.am      1 UNK        -0.4739 
      5 CA        -82.9907   25.7273  -72.4315 C.3       1 UNK         0.0864 
      6 C6        -82.7681   27.0516  -73.2192 C.3       11 UNK        -0.0881 
      7 S7        -81.0343   27.5010  -73.5974 S.3       11 UNK        -0.2682 
      8 C8        -80.8294   28.8783  -72.4290 C.3       11 UNK         0.0289 
      9 C9        -79.4033   29.4027  -72.3783 C.ar      11 UNK        -0.0687 
     10 C10       -78.9567   30.3202  -73.3336 C.ar      11 UNK        -0.0823 
     11 C11       -77.6874   30.8962  -73.2233 C.ar      11 UNK        -0.0830 
     12 C12       -76.8603   30.5383  -72.1531 C.ar      11 UNK        -0.1021 
     13 C13       -77.2843   29.6015  -71.2066 C.ar      11 UNK        -0.0753 
     14 C14       -78.5572   29.0341  -71.3279 C.ar      11 UNK        -0.0933 
     15 C15       -76.3988   29.2452  -70.0196 C.3       11 UNK         0.0166 
     16 S16       -75.0762   28.0728  -70.4605 S.3       11 UNK        -0.2615 
     17 C17       -73.7195   29.1781  -70.9864 C.3       11 UNK        -0.0865 
     18 CA        -73.3745   29.0647  -72.4982 C.3       10 UNK         0.0862 
     19 C         -72.2990   30.1071  -72.9074 C.2       10 UNK         0.5551 
     20 N         -72.6544   31.0768  -73.7379 N.am      10 UNK        -0.7319 
     21 O         -71.1585   30.0728  -72.4525 O.2       10 UNK        -0.5018 
     22 N         -73.0082   27.7101  -72.9433 N.am      10 UNK        -0.4509 
     23 C         -72.0488   26.9043  -72.4618 C.2       10 UNK         0.4899 
     24 O         -71.3663   27.1352  -71.4641 O.2       10 UNK        -0.4839 
     25 CA        -71.7982   25.6082  -73.2498 C.3       9 UNK         0.0222 
     26 CB        -72.8021   24.5168  -72.8433 C.3       9 UNK        -0.1966 
     27 N         -71.8954   25.8465  -74.6896 N.am      9 UNK        -0.4218 
     28 C         -70.8983   26.2881  -75.4666 C.2       9 UNK         0.5020 
     29 O         -69.7392   26.4301  -75.0723 O.2       9 UNK        -0.5274 
     30 CA        -71.2636   26.6667  -76.9172 C.3       8 UNK         0.0270 
     31 CB        -70.0749   26.5335  -77.8932 C.3       8 UNK        -0.1976 
     32 N         -72.4533   25.9740  -77.4292 N.am      8 UNK        -0.4313 
     33 C         -72.6106   24.6604  -77.6578 C.2       8 UNK         0.5041 
     34 O         -71.7225   23.8240  -77.4887 O.2       8 UNK        -0.5577 
     35 CA        -73.9986   24.1805  -78.1318 C.3       7 UNK         0.0284 
     36 CB        -74.6649   23.3218  -77.0440 C.3       7 UNK        -0.1958 
     37 N         -74.9109   25.2688  -78.4942 N.am      7 UNK        -0.4454 
     38 C         -74.8167   26.0245  -79.5965 C.2       7 UNK         0.5089 
     39 O         -73.9881   25.8407  -80.4880 O.2       7 UNK        -0.5125 
     40 CA        -75.7796   27.2211  -79.6881 C.3       6 UNK         0.0408 
     41 CB        -77.1085   26.8014  -80.3345 C.3       6 UNK        -0.1791 
     42 N         -76.0300   27.8377  -78.3786 N.am      6 UNK        -0.4762 
     43 C         -75.1124   28.5305  -77.6862 C.2       6 UNK         0.5007 
     44 O         -73.9683   28.7313  -78.0931 O.2       6 UNK        -0.5032 
     45 CA        -75.5113   29.0476  -76.2888 C.3       5 UNK         0.0783 
     46 C46       -76.2447   30.4117  -76.3743 C.3       11 UNK        -0.0857 
     47 S47       -75.6909   31.5434  -75.0589 S.3       11 UNK        -0.2512 
     48 C48       -77.2428   31.9676  -74.2092 C.3       11 UNK         0.0225 
     49 N         -76.2727   28.0454  -75.5350 N.am      5 UNK        -0.4615 
     50 C         -75.7451   26.9030  -75.0766 C.2       4 UNK         0.5053 
     51 O         -74.5487   26.6276  -75.1646 O.2       4 UNK        -0.5105 
     52 CA        -76.6964   25.8780  -74.4408 C.3       4 UNK         0.0263 
     53 CB        -76.7987   26.0964  -72.9278 C.3       4 UNK        -0.1981 
     54 N         -78.0408   25.8598  -75.0178 N.am      4 UNK        -0.4224 
     55 C         -78.3287   25.5698  -76.2950 C.2       3 UNK         0.4895 
     56 O         -77.4750   25.4025  -77.1670 O.2       3 UNK        -0.5091 
     57 CA        -79.8245   25.4301  -76.6291 C.3       3 UNK         0.0250 
     58 CB        -80.0902   24.8961  -78.0524 C.3       3 UNK        -0.1996 
     59 N         -80.5173   24.6271  -75.6147 N.am      3 UNK        -0.4254 
     60 C         -80.3154   23.3359  -75.3005 C.2       2 UNK         0.5004 
     61 O         -79.5792   22.5818  -75.9378 O.2       2 UNK        -0.5226 
     62 CA        -81.0255   22.8000  -74.0383 C.3       2 UNK         0.0269 
     63 CB        -80.0832   21.9236  -73.1929 C.3       2 UNK        -0.1926 
     64 N         -81.5355   23.8777  -73.1866 N.am      2 UNK        -0.4687 
     65 C         -82.7168   24.4866  -73.3117 C.2       1 UNK         0.5165 
     66 O         -83.5735   24.1240  -74.1188 O.2       1 UNK        -0.5079 
     67 H67       -81.9009   25.9037  -68.5791 H         1 UNK         0.0900 
     68 H68       -80.5496   24.7762  -68.7176 H         1 UNK         0.0900 
     69 H69       -80.2734   26.5114  -68.8890 H         1 UNK         0.0900 
     70 H70       -83.1477   25.8603  -70.3560 H         1 UNK         0.2959 
     71 H71       -84.0670   25.6748  -72.2558 H         1 UNK         0.1079 
     72 H72       -83.2349   27.8691  -72.6678 H         1 UNK         0.0837 
     73 H73       -83.3111   27.0179  -74.1660 H         1 UNK         0.0837 
     74 H74       -81.5047   29.6880  -72.7097 H         1 UNK         0.0685 
     75 H75       -81.1412   28.5539  -71.4351 H         1 UNK         0.0685 
     76 H76       -79.6169   30.6141  -74.1384 H         1 UNK         0.1434 
     77 H77       -75.8903   31.0038  -72.0504 H         1 UNK         0.1329 
     78 H78       -78.9018   28.3240  -70.5885 H         1 UNK         0.1335 
     79 H79       -75.9768   30.1499  -69.5803 H         1 UNK         0.0680 
     80 H80       -77.0020   28.7903  -69.2323 H         1 UNK         0.0680 
     81 H81       -73.9803   30.2087  -70.7421 H         1 UNK         0.1032 
     82 H82       -72.8452   28.9540  -70.3736 H         1 UNK         0.1032 
     83 H83       -74.2867   29.2973  -73.0502 H         1 UNK         0.0461 
     84 H84       -71.9687   31.7682  -73.9978 H         1 UNK         0.3453 
     85 H85       -73.5950   31.1480  -74.0989 H         1 UNK         0.3453 
     86 H86       -73.5046   27.3886  -73.7675 H         1 UNK         0.2984 
     87 H87       -70.7946   25.2511  -73.0088 H         1 UNK         0.0554 
     88 H88       -72.7601   24.3289  -71.7696 H         1 UNK         0.0847 
     89 H89       -72.5852   23.5745  -73.3466 H         1 UNK         0.0847 
     90 H90       -73.8275   24.7954  -73.0861 H         1 UNK         0.0847 
     91 H91       -72.8320   25.8389  -75.0846 H         1 UNK         0.3141 
     92 H92       -71.5349   27.7229  -76.8820 H         1 UNK         0.0743 
     93 H93       -69.6898   25.5140  -77.9266 H         1 UNK         0.0784 
     94 H94       -70.3600   26.8189  -78.9059 H         1 UNK         0.0784 
     95 H95       -69.2495   27.1816  -77.5960 H         1 UNK         0.0784 
     96 H96       -73.2538   26.5703  -77.5961 H         1 UNK         0.3213 
     97 H97       -73.8442   23.5578  -79.0156 H         1 UNK         0.0855 
     98 H98       -74.7841   23.8771  -76.1141 H         1 UNK         0.0814 
     99 H99       -74.0637   22.4397  -76.8197 H         1 UNK         0.0814 
    100 H100      -75.6497   22.9729  -77.3560 H         1 UNK         0.0814 
    101 H101      -75.6912   25.4442  -77.8645 H         1 UNK         0.3105 
    102 H102      -75.3167   27.9734  -80.3305 H         1 UNK         0.0547 
    103 H103      -76.9445   26.4251  -81.3451 H         1 UNK         0.0837 
    104 H104      -77.5989   26.0075  -79.7721 H         1 UNK         0.0837 
    105 H105      -77.8000   27.6405  -80.4101 H         1 UNK         0.0837 
    106 H106      -76.9255   27.6486  -77.9510 H         1 UNK         0.3020 
    107 H107      -74.5634   29.1942  -75.7649 H         1 UNK         0.1245 
    108 H108      -77.3278   30.2828  -76.3422 H         1 UNK         0.0781 
    109 H109      -76.0399   30.9254  -77.3164 H         1 UNK         0.0781 
    110 H110      -78.0176   32.1775  -74.9482 H         1 UNK         0.0836 
    111 H111      -77.0912   32.8977  -73.6597 H         1 UNK         0.0836 
    112 H112      -77.2572   28.2178  -75.3962 H         1 UNK         0.3022 
    113 H113      -76.2658   24.8892  -74.6054 H         1 UNK         0.0747 
    114 H114      -77.4325   25.3463  -72.4540 H         1 UNK         0.0793 
    115 H115      -75.8173   26.0342  -72.4579 H         1 UNK         0.0793 
    116 H116      -77.2105   27.0772  -72.6953 H         1 UNK         0.0793 
    117 H117      -78.8065   26.0002  -74.3729 H         1 UNK         0.3047 
    118 H118      -80.2485   26.4336  -76.5703 H         1 UNK         0.0822 
    119 H119      -81.1560   24.7562  -78.2317 H         1 UNK         0.0807 
    120 H120      -79.5914   23.9429  -78.2309 H         1 UNK         0.0807 
    121 H121      -79.7270   25.5979  -78.8029 H         1 UNK         0.0807 
    122 H122      -81.1400   25.1445  -75.0103 H         1 UNK         0.2946 
    123 H123      -81.8584   22.1803  -74.3780 H         1 UNK         0.1144 
    124 H124      -79.2073   22.4826  -72.8604 H         1 UNK         0.0793 
    125 H125      -79.7272   21.0630  -73.7608 H         1 UNK         0.0793 
    126 H126      -80.5893   21.5369  -72.3083 H         1 UNK         0.0793 
    127 H127      -80.8829   24.2897  -72.5182 H         1 UNK         0.2896 
@<TRIPOS>BOND
     1    1    2 1    
     2    1   67 1    
     3    1   68 1    
     4    1   69 1    
     5    2    3 2    
     6    2    4 am   BACKBONE|DICT|INTERRES
     7    4    5 1    
     8    4   70 1    
     9    5    6 1    
    10    5   65 1    
    11    5   71 1    
    12    6    7 1    
    13    6   72 1    
    14    6   73 1    
    15    7    8 1    
    16    8    9 1    
    17    8   74 1    
    18    8   75 1    
    19    9   10 ar   
    20    9   14 ar   
    21   10   11 ar   
    22   10   76 1    
    23   11   12 ar   
    24   11   48 1    
    25   12   13 ar   
    26   12   77 1    
    27   13   14 ar   
    28   13   15 1    
    29   14   78 1    
    30   15   16 1    
    31   15   79 1    
    32   15   80 1    
    33   16   17 1    
    34   17   18 1    
    35   17   81 1    
    36   17   82 1    
    37   18   19 1    
    38   18   22 1    
    39   18   83 1    
    40   19   20 am   BACKBONE|DICT|INTERRES
    41   19   21 2    
    42   20   84 1    
    43   20   85 1    
    44   22   23 am   BACKBONE|DICT|INTERRES
    45   22   86 1    
    46   23   24 2    
    47   23   25 1    
    48   25   26 1    
    49   25   27 1    
    50   25   87 1    
    51   26   88 1    
    52   26   89 1    
    53   26   90 1    
    54   27   28 am   BACKBONE|DICT|INTERRES
    55   27   91 1    
    56   28   29 2    
    57   28   30 1    
    58   30   31 1    
    59   30   32 1    
    60   30   92 1    
    61   31   93 1    
    62   31   94 1    
    63   31   95 1    
    64   32   33 am   BACKBONE|DICT|INTERRES
    65   32   96 1    
    66   33   34 2    
    67   33   35 1    
    68   35   36 1    
    69   35   37 1    
    70   35   97 1    
    71   36   98 1    
    72   36   99 1    
    73   36  100 1    
    74   37   38 am   BACKBONE|DICT|INTERRES
    75   37  101 1    
    76   38   39 2    
    77   38   40 1    
    78   40   41 1    
    79   40   42 1    
    80   40  102 1    
    81   41  103 1    
    82   41  104 1    
    83   41  105 1    
    84   42   43 am   BACKBONE|DICT|INTERRES
    85   42  106 1    
    86   43   44 2    
    87   43   45 1    
    88   45   46 1    
    89   45   49 1    
    90   45  107 1    
    91   46   47 1    
    92   46  108 1    
    93   46  109 1    
    94   47   48 1    
    95   48  110 1    
    96   48  111 1    
    97   49   50 am   BACKBONE|DICT|INTERRES
    98   49  112 1    
    99   50   51 2    
   100   50   52 1    
   101   52   53 1    
   102   52   54 1    
   103   52  113 1    
   104   53  114 1    
   105   53  115 1    
   106   53  116 1    
   107   54   55 am   BACKBONE|DICT|INTERRES
   108   54  117 1    
   109   55   56 2    
   110   55   57 1    
   111   57   58 1    
   112   57   59 1    
   113   57  118 1    
   114   58  119 1    
   115   58  120 1    
   116   58  121 1    
   117   59   60 am   BACKBONE|DICT|INTERRES
   118   59  122 1    
   119   60   61 2    
   120   60   62 1    
   121   62   63 1    
   122   62   64 1    
   123   62  123 1    
   124   63  124 1    
   125   63  125 1    
   126   63  126 1    
   127   64   65 am   BACKBONE|DICT|INTERRES
   128   64  127 1    
   129   65   66 2    
@<TRIPOS>SUBSTRUCTURE
     1 UNK         1 GROUP             0       ****    0 ROOT    
