@<TRIPOS>MOLECULE
3R135
127   129    1
SMALL
USER_CHARGES


@<TRIPOS>ATOM
      1 CA        -80.5902   31.0583  -77.2358 C.3       0 UNK        -0.1998 
      2 C         -80.4167   30.4085  -75.8714 C.2       0 UNK         0.4909 
      3 O         -79.6053   30.8743  -75.0747 O.2       0 UNK        -0.5240 
      4 N         -81.1726   29.3404  -75.6050 N.am      1 UNK        -0.4739 
      5 CA        -81.1537   28.5150  -74.3971 C.3       1 UNK         0.0864 
      6 C6        -81.8264   29.2297  -73.1908 C.3       11 UNK        -0.0881 
      7 S7        -81.6406   28.3739  -71.5829 S.3       11 UNK        -0.2682 
      8 C8        -80.2682   29.2716  -70.7880 C.3       11 UNK         0.0289 
      9 C9        -78.9199   28.7751  -71.2859 C.ar      11 UNK        -0.0687 
     10 C10       -78.2921   27.6910  -70.6669 C.ar      11 UNK        -0.0823 
     11 C11       -77.0743   27.2053  -71.1536 C.ar      11 UNK        -0.0830 
     12 C12       -76.4881   27.8150  -72.2677 C.ar      11 UNK        -0.1021 
     13 C13       -77.0924   28.9191  -72.8840 C.ar      11 UNK        -0.0753 
     14 C14       -78.3023   29.3953  -72.3728 C.ar      11 UNK        -0.0933 
     15 C15       -76.5101   29.6059  -74.1220 C.3       11 UNK         0.0166 
     16 S16       -74.7380   29.3052  -74.4416 S.3       11 UNK        -0.2615 
     17 C17       -73.9708   30.2471  -73.0822 C.3       11 UNK        -0.0865 
     18 CA        -72.4193   30.2640  -73.1228 C.3       10 UNK         0.0862 
     19 C         -71.7820   28.8841  -72.7770 C.2       10 UNK         0.5551 
     20 N         -70.8424   28.3604  -73.5564 N.am      10 UNK        -0.7319 
     21 O         -72.1300   28.2866  -71.7615 O.2       10 UNK        -0.5018 
     22 N         -71.9069   30.8889  -74.3544 N.am      10 UNK        -0.4509 
     23 C         -70.7666   31.5880  -74.4288 C.2       10 UNK         0.4899 
     24 O         -70.0634   31.8467  -73.4502 O.2       10 UNK        -0.4839 
     25 CA        -70.3395   32.0804  -75.8293 C.3       9 UNK         0.0222 
     26 CB        -68.8689   32.5493  -75.8678 C.3       9 UNK        -0.1966 
     27 N         -70.5867   31.1173  -76.9123 N.am      9 UNK        -0.4218 
     28 C         -70.1609   29.8476  -76.9800 C.2       9 UNK         0.5020 
     29 O         -69.5392   29.2717  -76.0837 O.2       9 UNK        -0.5274 
     30 CA        -70.4853   29.0854  -78.2764 C.3       8 UNK         0.0270 
     31 CB        -69.2046   28.8063  -79.0805 C.3       8 UNK        -0.1976 
     32 N         -71.1622   27.8220  -77.9810 N.am      8 UNK        -0.4313 
     33 C         -72.3949   27.7439  -77.4668 C.2       8 UNK         0.5041 
     34 O         -73.1180   28.7293  -77.2932 O.2       8 UNK        -0.5577 
     35 CA        -72.9026   26.3463  -77.0831 C.3       7 UNK         0.0284 
     36 CB        -71.9673   25.6479  -76.0744 C.3       7 UNK        -0.1958 
     37 N         -74.2304   26.4938  -76.4980 N.am      7 UNK        -0.4454 
     38 C         -75.1593   25.5428  -76.3816 C.2       7 UNK         0.5089 
     39 O         -75.0335   24.3938  -76.8120 O.2       7 UNK        -0.5125 
     40 CA        -76.4618   25.9696  -75.6833 C.3       6 UNK         0.0408 
     41 CB        -77.5412   26.3395  -76.7128 C.3       6 UNK        -0.1791 
     42 N         -76.9990   24.9601  -74.7712 N.am      6 UNK        -0.4762 
     43 C         -76.3626   24.4236  -73.7185 C.2       6 UNK         0.5007 
     44 O         -75.1927   24.6644  -73.4189 O.2       6 UNK        -0.5032 
     45 CA        -77.1884   23.4688  -72.8384 C.3       5 UNK         0.0783 
     46 C46       -78.1277   24.2581  -71.8869 C.3       11 UNK        -0.0857 
     47 S47       -77.4191   24.5615  -70.2342 S.3       11 UNK        -0.2512 
     48 C48       -76.3696   26.0364  -70.4737 C.3       11 UNK         0.0225 
     49 N         -77.9498   22.5388  -73.6747 N.am      5 UNK        -0.4615 
     50 C         -77.5759   21.2884  -73.9725 C.2       4 UNK         0.5053 
     51 O         -76.5223   20.7819  -73.5857 O.2       4 UNK        -0.5105 
     52 CA        -78.5460   20.4344  -74.8123 C.3       4 UNK         0.0263 
     53 CB        -79.2645   19.4106  -73.9175 C.3       4 UNK        -0.1981 
     54 N         -79.5520   21.2283  -75.5220 N.am      4 UNK        -0.4224 
     55 C         -79.3323   21.8767  -76.6735 C.2       3 UNK         0.4895 
     56 O         -78.2771   21.8152  -77.3041 O.2       3 UNK        -0.5091 
     57 CA        -80.4775   22.7576  -77.2082 C.3       3 UNK         0.0250 
     58 CB        -81.3338   21.9701  -78.2132 C.3       3 UNK        -0.1996 
     59 N         -81.3506   23.3386  -76.1773 N.am      3 UNK        -0.4254 
     60 C         -80.9388   24.1546  -75.1979 C.2       2 UNK         0.5004 
     61 O         -79.7537   24.4098  -74.9745 O.2       2 UNK        -0.5226 
     62 CA        -82.0141   24.7648  -74.2882 C.3       2 UNK         0.0269 
     63 CB        -82.1552   23.9515  -72.9924 C.3       2 UNK        -0.1926 
     64 N         -81.6450   26.1420  -73.9572 N.am      2 UNK        -0.4687 
     65 C         -81.8196   27.1778  -74.7853 C.2       1 UNK         0.5165 
     66 O         -82.4621   27.0967  -75.8387 O.2       1 UNK        -0.5079 
     67 H67       -79.6475   31.0396  -77.7821 H         1 UNK         0.0900 
     68 H68       -80.8965   32.0976  -77.1195 H         1 UNK         0.0900 
     69 H69       -81.3420   30.5483  -77.8381 H         1 UNK         0.0900 
     70 H70       -81.8006   28.9689  -76.3099 H         1 UNK         0.2959 
     71 H71       -80.1108   28.2988  -74.1585 H         1 UNK         0.1079 
     72 H72       -81.4243   30.2381  -73.0859 H         1 UNK         0.0837 
     73 H73       -82.8925   29.3636  -73.3828 H         1 UNK         0.0837 
     74 H74       -80.3726   30.3450  -70.9536 H         1 UNK         0.0685 
     75 H75       -80.3349   29.1253  -69.7089 H         1 UNK         0.0685 
     76 H76       -78.7580   27.2151  -69.8147 H         1 UNK         0.1434 
     77 H77       -75.5562   27.4219  -72.6495 H         1 UNK         0.1329 
     78 H78       -78.7831   30.2434  -72.8374 H         1 UNK         0.1335 
     79 H79       -76.6713   30.6832  -74.0565 H         1 UNK         0.0680 
     80 H80       -77.0746   29.2674  -74.9919 H         1 UNK         0.0680 
     81 H81       -74.3236   29.8472  -72.1297 H         1 UNK         0.1032 
     82 H82       -74.3433   31.2717  -73.1241 H         1 UNK         0.1032 
     83 H83       -72.1213   30.9064  -72.2919 H         1 UNK         0.0461 
     84 H84       -70.5118   28.8437  -74.3846 H         1 UNK         0.3453 
     85 H85       -70.4342   27.4767  -73.2996 H         1 UNK         0.3453 
     86 H86       -72.4158   30.6754  -75.2015 H         1 UNK         0.2984 
     87 H87       -70.9658   32.9473  -76.0443 H         1 UNK         0.0554 
     88 H88       -68.6929   33.3547  -75.1535 H         1 UNK         0.0847 
     89 H89       -68.5981   32.9298  -76.8526 H         1 UNK         0.0847 
     90 H90       -68.1817   31.7390  -75.6211 H         1 UNK         0.0847 
     91 H91       -71.1270   31.4725  -77.6899 H         1 UNK         0.3141 
     92 H92       -71.1506   29.6920  -78.8949 H         1 UNK         0.0743 
     93 H93       -69.4270   28.2993  -80.0197 H         1 UNK         0.0784 
     94 H94       -68.5024   28.1864  -78.5211 H         1 UNK         0.0784 
     95 H95       -68.6908   29.7361  -79.3288 H         1 UNK         0.0784 
     96 H96       -70.6123   26.9802  -78.0716 H         1 UNK         0.3213 
     97 H97       -72.9761   25.7509  -77.9956 H         1 UNK         0.0855 
     98 H98       -71.8615   26.2325  -75.1601 H         1 UNK         0.0814 
     99 H99       -70.9693   25.4962  -76.4858 H         1 UNK         0.0814 
    100 H100      -72.3470   24.6650  -75.7946 H         1 UNK         0.0814 
    101 H101      -74.4290   27.4411  -76.1912 H         1 UNK         0.3105 
    102 H102      -76.2535   26.8517  -75.0790 H         1 UNK         0.0547 
    103 H103      -77.1834   27.1095  -77.3974 H         1 UNK         0.0837 
    104 H104      -77.8339   25.4763  -77.3121 H         1 UNK         0.0837 
    105 H105      -78.4364   26.7287  -76.2268 H         1 UNK         0.0837 
    106 H106      -77.9732   24.7040  -74.9201 H         1 UNK         0.3020 
    107 H107      -76.4820   22.8965  -72.2321 H         1 UNK         0.1245 
    108 H108      -79.0253   23.6694  -71.6955 H         1 UNK         0.0781 
    109 H109      -78.4944   25.1865  -72.3296 H         1 UNK         0.0781 
    110 H110      -75.4778   25.7439  -71.0286 H         1 UNK         0.0836 
    111 H111      -76.0149   26.3688  -69.4974 H         1 UNK         0.0836 
    112 H112      -78.7888   22.9166  -74.0997 H         1 UNK         0.3022 
    113 H113      -77.9487   19.8855  -75.5439 H         1 UNK         0.0747 
    114 H114      -79.9093   18.7548  -74.5031 H         1 UNK         0.0793 
    115 H115      -78.5467   18.7746  -73.3972 H         1 UNK         0.0793 
    116 H116      -79.8784   19.8969  -73.1583 H         1 UNK         0.0793 
    117 H117      -80.4561   21.3231  -75.0826 H         1 UNK         0.3047 
    118 H118      -80.0120   23.5908  -77.7394 H         1 UNK         0.0822 
    119 H119      -82.0756   22.6100  -78.6917 H         1 UNK         0.0807 
    120 H120      -81.8602   21.1430  -77.7350 H         1 UNK         0.0807 
    121 H121      -80.7157   21.5472  -79.0067 H         1 UNK         0.0807 
    122 H122      -82.3401   23.1619  -76.2788 H         1 UNK         0.2946 
    123 H123      -82.9736   24.7627  -74.8111 H         1 UNK         0.1144 
    124 H124      -82.9302   24.3680  -72.3486 H         1 UNK         0.0793 
    125 H125      -81.2266   23.9307  -72.4230 H         1 UNK         0.0793 
    126 H126      -82.4327   22.9182  -73.2049 H         1 UNK         0.0793 
    127 H127      -81.1100   26.2811  -73.1114 H         1 UNK         0.2896 
@<TRIPOS>BOND
     1    1    2 1    
     2    1   67 1    
     3    1   68 1    
     4    1   69 1    
     5    2    3 2    
     6    2    4 am   BACKBONE|DICT|INTERRES
     7    4    5 1    
     8    4   70 1    
     9    5    6 1    
    10    5   65 1    
    11    5   71 1    
    12    6    7 1    
    13    6   72 1    
    14    6   73 1    
    15    7    8 1    
    16    8    9 1    
    17    8   74 1    
    18    8   75 1    
    19    9   10 ar   
    20    9   14 ar   
    21   10   11 ar   
    22   10   76 1    
    23   11   12 ar   
    24   11   48 1    
    25   12   13 ar   
    26   12   77 1    
    27   13   14 ar   
    28   13   15 1    
    29   14   78 1    
    30   15   16 1    
    31   15   79 1    
    32   15   80 1    
    33   16   17 1    
    34   17   18 1    
    35   17   81 1    
    36   17   82 1    
    37   18   19 1    
    38   18   22 1    
    39   18   83 1    
    40   19   20 am   BACKBONE|DICT|INTERRES
    41   19   21 2    
    42   20   84 1    
    43   20   85 1    
    44   22   23 am   BACKBONE|DICT|INTERRES
    45   22   86 1    
    46   23   24 2    
    47   23   25 1    
    48   25   26 1    
    49   25   27 1    
    50   25   87 1    
    51   26   88 1    
    52   26   89 1    
    53   26   90 1    
    54   27   28 am   BACKBONE|DICT|INTERRES
    55   27   91 1    
    56   28   29 2    
    57   28   30 1    
    58   30   31 1    
    59   30   32 1    
    60   30   92 1    
    61   31   93 1    
    62   31   94 1    
    63   31   95 1    
    64   32   33 am   BACKBONE|DICT|INTERRES
    65   32   96 1    
    66   33   34 2    
    67   33   35 1    
    68   35   36 1    
    69   35   37 1    
    70   35   97 1    
    71   36   98 1    
    72   36   99 1    
    73   36  100 1    
    74   37   38 am   BACKBONE|DICT|INTERRES
    75   37  101 1    
    76   38   39 2    
    77   38   40 1    
    78   40   41 1    
    79   40   42 1    
    80   40  102 1    
    81   41  103 1    
    82   41  104 1    
    83   41  105 1    
    84   42   43 am   BACKBONE|DICT|INTERRES
    85   42  106 1    
    86   43   44 2    
    87   43   45 1    
    88   45   46 1    
    89   45   49 1    
    90   45  107 1    
    91   46   47 1    
    92   46  108 1    
    93   46  109 1    
    94   47   48 1    
    95   48  110 1    
    96   48  111 1    
    97   49   50 am   BACKBONE|DICT|INTERRES
    98   49  112 1    
    99   50   51 2    
   100   50   52 1    
   101   52   53 1    
   102   52   54 1    
   103   52  113 1    
   104   53  114 1    
   105   53  115 1    
   106   53  116 1    
   107   54   55 am   BACKBONE|DICT|INTERRES
   108   54  117 1    
   109   55   56 2    
   110   55   57 1    
   111   57   58 1    
   112   57   59 1    
   113   57  118 1    
   114   58  119 1    
   115   58  120 1    
   116   58  121 1    
   117   59   60 am   BACKBONE|DICT|INTERRES
   118   59  122 1    
   119   60   61 2    
   120   60   62 1    
   121   62   63 1    
   122   62   64 1    
   123   62  123 1    
   124   63  124 1    
   125   63  125 1    
   126   63  126 1    
   127   64   65 am   BACKBONE|DICT|INTERRES
   128   64  127 1    
   129   65   66 2    
@<TRIPOS>SUBSTRUCTURE
     1 UNK         1 GROUP             0       ****    0 ROOT    
