@<TRIPOS>MOLECULE
3R135
127   129    1
SMALL
USER_CHARGES


@<TRIPOS>ATOM
      1 CA        -82.6397   30.4168  -75.0818 C.3       0 UNK        -0.1998 
      2 C         -81.1248   30.5941  -75.0137 C.2       0 UNK         0.4909 
      3 O         -80.6126   31.5330  -75.6213 O.2       0 UNK        -0.5240 
      4 N         -80.3569   29.7604  -74.2958 N.am      1 UNK        -0.4739 
      5 CA        -80.7108   28.5484  -73.5354 C.3       1 UNK         0.0864 
      6 C6        -81.8151   28.7293  -72.4501 C.3       11 UNK        -0.0881 
      7 S7        -81.5905   30.2010  -71.3933 S.3       11 UNK        -0.2682 
      8 C8        -80.6649   29.5158  -69.9801 C.3       11 UNK         0.0289 
      9 C9        -79.2752   29.0230  -70.3667 C.ar      11 UNK        -0.0687 
     10 C10       -78.8678   27.7275  -70.0295 C.ar      11 UNK        -0.0823 
     11 C11       -77.5855   27.2713  -70.3549 C.ar      11 UNK        -0.0830 
     12 C12       -76.7158   28.1308  -71.0366 C.ar      11 UNK        -0.1021 
     13 C13       -77.1116   29.4218  -71.3915 C.ar      11 UNK        -0.0753 
     14 C14       -78.3872   29.8678  -71.0413 C.ar      11 UNK        -0.0933 
     15 C15       -76.1564   30.3375  -72.1400 C.3       11 UNK         0.0166 
     16 S16       -76.4414   30.2531  -73.9336 S.3       11 UNK        -0.2615 
     17 C17       -75.1227   31.3579  -74.5507 C.3       11 UNK        -0.0865 
     18 CA        -74.0641   30.6317  -75.4363 C.3       10 UNK         0.0862 
     19 C         -73.0789   31.6239  -76.1277 C.2       10 UNK         0.5551 
     20 N         -71.8139   31.2719  -76.3266 N.am      10 UNK        -0.7319 
     21 O         -73.4711   32.7207  -76.5191 O.2       10 UNK        -0.5018 
     22 N         -73.4081   29.4887  -74.7701 N.am      10 UNK        -0.4509 
     23 C         -72.6677   29.5464  -73.6549 C.2       10 UNK         0.4899 
     24 O         -72.4466   30.5842  -73.0307 O.2       10 UNK        -0.4839 
     25 CA        -72.0706   28.2325  -73.1260 C.3       9 UNK         0.0222 
     26 CB        -72.9139   27.6899  -71.9636 C.3       9 UNK        -0.1966 
     27 N         -71.9410   27.1784  -74.1339 N.am      9 UNK        -0.4218 
     28 C         -70.9148   27.0645  -74.9863 C.2       9 UNK         0.5020 
     29 O         -70.0400   27.9209  -75.1211 O.2       9 UNK        -0.5274 
     30 CA        -70.8338   25.7676  -75.8039 C.3       8 UNK         0.0270 
     31 CB        -70.5126   24.5676  -74.8955 C.3       8 UNK        -0.1976 
     32 N         -72.0834   25.5121  -76.5191 N.am      8 UNK        -0.4313 
     33 C         -72.2111   25.4979  -77.8532 C.2       8 UNK         0.5041 
     34 O         -71.2703   25.6501  -78.6345 O.2       8 UNK        -0.5577 
     35 CA        -73.6234   25.2768  -78.4329 C.3       7 UNK         0.0284 
     36 CB        -73.7969   23.8104  -78.8612 C.3       7 UNK        -0.1958 
     37 N         -74.7164   25.6499  -77.5285 N.am      7 UNK        -0.4454 
     38 C         -74.9080   26.8785  -77.0279 C.2       7 UNK         0.5089 
     39 O         -74.2196   27.8522  -77.3294 O.2       7 UNK        -0.5125 
     40 CA        -75.9993   27.0489  -75.9605 C.3       6 UNK         0.0408 
     41 CB        -77.3148   27.5249  -76.5929 C.3       6 UNK        -0.1791 
     42 N         -76.2499   25.8595  -75.1457 N.am      6 UNK        -0.4762 
     43 C         -75.3589   25.2279  -74.3672 C.2       6 UNK         0.5007 
     44 O         -74.1576   25.5030  -74.3342 O.2       6 UNK        -0.5032 
     45 CA        -75.9074   24.0667  -73.5206 C.3       5 UNK         0.0783 
     46 C46       -76.8142   24.5653  -72.3653 C.3       11 UNK        -0.0857 
     47 S47       -75.8519   25.0890  -70.9127 S.3       11 UNK        -0.2512 
     48 C48       -77.1522   25.8763  -69.8977 C.3       11 UNK         0.0225 
     49 N         -76.6212   23.1352  -74.3908 N.am      5 UNK        -0.4615 
     50 C         -76.0519   22.1244  -75.0585 C.2       4 UNK         0.5053 
     51 O         -74.8694   21.8044  -74.9385 O.2       4 UNK        -0.5105 
     52 CA        -76.9477   21.3331  -76.0302 C.3       4 UNK         0.0263 
     53 CB        -77.4899   20.0669  -75.3480 C.3       4 UNK        -0.1981 
     54 N         -78.0702   22.1096  -76.5664 N.am      4 UNK        -0.4224 
     55 C         -77.9434   23.1734  -77.3718 C.2       3 UNK         0.4895 
     56 O         -76.8634   23.6165  -77.7606 O.2       3 UNK        -0.5091 
     57 CA        -79.2401   23.8982  -77.7695 C.3       3 UNK         0.0250 
     58 CB        -79.9039   23.1945  -78.9640 C.3       3 UNK        -0.1996 
     59 N         -80.2212   24.0614  -76.6868 N.am      3 UNK        -0.4254 
     60 C         -79.9734   24.6053  -75.4867 C.2       2 UNK         0.5004 
     61 O         -78.8477   24.8910  -75.0755 O.2       2 UNK        -0.5226 
     62 CA        -81.1785   24.8641  -74.5702 C.3       2 UNK         0.0269 
     63 CB        -81.3198   23.7270  -73.5458 C.3       2 UNK        -0.1926 
     64 N         -81.0284   26.1372  -73.8570 N.am      2 UNK        -0.4687 
     65 C         -81.0008   27.3394  -74.4513 C.2       1 UNK         0.5165 
     66 O         -81.1953   27.4978  -75.6593 O.2       1 UNK        -0.5079 
     67 H67       -83.1062   30.8159  -74.1819 H         1 UNK         0.0900 
     68 H68       -82.9327   29.3761  -75.1997 H         1 UNK         0.0900 
     69 H69       -83.0445   30.9623  -75.9338 H         1 UNK         0.0900 
     70 H70       -79.3640   29.9484  -74.3015 H         1 UNK         0.2959 
     71 H71       -79.7878   28.2869  -73.0163 H         1 UNK         0.1079 
     72 H72       -82.8056   28.7906  -72.9008 H         1 UNK         0.0837 
     73 H73       -81.8551   27.8517  -71.8028 H         1 UNK         0.0837 
     74 H74       -80.5602   30.2926  -69.2218 H         1 UNK         0.0685 
     75 H75       -81.2530   28.7180  -69.5238 H         1 UNK         0.0685 
     76 H76       -79.5446   27.0777  -69.4911 H         1 UNK         0.1434 
     77 H77       -75.7195   27.8043  -71.2827 H         1 UNK         0.1329 
     78 H78       -78.6952   30.8703  -71.3056 H         1 UNK         0.1335 
     79 H79       -75.1233   30.0640  -71.9219 H         1 UNK         0.0680 
     80 H80       -76.2832   31.3666  -71.8005 H         1 UNK         0.0680 
     81 H81       -75.6182   32.1419  -75.1261 H         1 UNK         0.1032 
     82 H82       -74.6403   31.8707  -73.7176 H         1 UNK         0.1032 
     83 H83       -74.6162   30.1937  -76.2671 H         1 UNK         0.0461 
     84 H84       -71.1870   31.9148  -76.7838 H         1 UNK         0.3453 
     85 H85       -71.4807   30.3723  -76.0172 H         1 UNK         0.3453 
     86 H86       -73.4975   28.6044  -75.2502 H         1 UNK         0.2984 
     87 H87       -71.0779   28.4663  -72.7350 H         1 UNK         0.0554 
     88 H88       -72.4132   26.8604  -71.4642 H         1 UNK         0.0847 
     89 H89       -73.8775   27.3281  -72.3182 H         1 UNK         0.0847 
     90 H90       -73.1002   28.4572  -71.2108 H         1 UNK         0.0847 
     91 H91       -72.6569   26.4534  -74.1167 H         1 UNK         0.3141 
     92 H92       -70.0053   25.8818  -76.5061 H         1 UNK         0.0743 
     93 H93       -71.3133   24.3684  -74.1818 H         1 UNK         0.0784 
     94 H94       -70.3587   23.6618  -75.4823 H         1 UNK         0.0784 
     95 H95       -69.5997   24.7422  -74.3244 H         1 UNK         0.0784 
     96 H96       -72.9177   25.3968  -75.9531 H         1 UNK         0.3213 
     97 H97       -73.7059   25.9055  -79.3218 H         1 UNK         0.0855 
     98 H98       -73.8103   23.1386  -78.0018 H         1 UNK         0.0814 
     99 H99       -72.9832   23.4917  -79.5143 H         1 UNK         0.0814 
    100 H100      -74.7253   23.6669  -79.4139 H         1 UNK         0.0814 
    101 H101      -75.3781   24.9182  -77.2856 H         1 UNK         0.3105 
    102 H102      -75.6555   27.8230  -75.2754 H         1 UNK         0.0547 
    103 H103      -77.1647   28.4437  -77.1614 H         1 UNK         0.0837 
    104 H104      -77.7260   26.7800  -77.2737 H         1 UNK         0.0837 
    105 H105      -78.0671   27.7359  -75.8326 H         1 UNK         0.0837 
    106 H106      -77.2152   25.5287  -75.1269 H         1 UNK         0.3020 
    107 H107      -75.0513   23.5444  -73.0863 H         1 UNK         0.1245 
    108 H108      -77.4694   23.7585  -72.0323 H         1 UNK         0.0781 
    109 H109      -77.4773   25.3732  -72.6826 H         1 UNK         0.0781 
    110 H110      -76.7805   25.9587  -68.8757 H         1 UNK         0.0836 
    111 H111      -78.0136   25.2076  -69.8564 H         1 UNK         0.0836 
    112 H112      -77.5800   23.3838  -74.6060 H         1 UNK         0.3022 
    113 H113      -76.3223   21.0282  -76.8721 H         1 UNK         0.0747 
    114 H114      -78.0546   19.4495  -76.0468 H         1 UNK         0.0793 
    115 H115      -76.6752   19.4526  -74.9618 H         1 UNK         0.0793 
    116 H116      -78.1422   20.3084  -74.5077 H         1 UNK         0.0793 
    117 H117      -78.9988   21.8266  -76.2888 H         1 UNK         0.3047 
    118 H118      -78.9565   24.9018  -78.0908 H         1 UNK         0.0822 
    119 H119      -80.7475   23.7698  -79.3459 H         1 UNK         0.0807 
    120 H120      -80.2670   22.2007  -78.6988 H         1 UNK         0.0807 
    121 H121      -79.1988   23.0746  -79.7881 H         1 UNK         0.0807 
    122 H122      -81.1776   23.8376  -76.9222 H         1 UNK         0.2946 
    123 H123      -82.0857   24.9162  -75.1763 H         1 UNK         0.1144 
    124 H124      -81.4585   22.7663  -74.0438 H         1 UNK         0.0793 
    125 H125      -82.1829   23.8810  -72.8978 H         1 UNK         0.0793 
    126 H126      -80.4353   23.6410  -72.9128 H         1 UNK         0.0793 
    127 H127      -80.8327   26.0733  -72.8690 H         1 UNK         0.2896 
@<TRIPOS>BOND
     1    1    2 1    
     2    1   67 1    
     3    1   68 1    
     4    1   69 1    
     5    2    3 2    
     6    2    4 am   BACKBONE|DICT|INTERRES
     7    4    5 1    
     8    4   70 1    
     9    5    6 1    
    10    5   65 1    
    11    5   71 1    
    12    6    7 1    
    13    6   72 1    
    14    6   73 1    
    15    7    8 1    
    16    8    9 1    
    17    8   74 1    
    18    8   75 1    
    19    9   10 ar   
    20    9   14 ar   
    21   10   11 ar   
    22   10   76 1    
    23   11   12 ar   
    24   11   48 1    
    25   12   13 ar   
    26   12   77 1    
    27   13   14 ar   
    28   13   15 1    
    29   14   78 1    
    30   15   16 1    
    31   15   79 1    
    32   15   80 1    
    33   16   17 1    
    34   17   18 1    
    35   17   81 1    
    36   17   82 1    
    37   18   19 1    
    38   18   22 1    
    39   18   83 1    
    40   19   20 am   BACKBONE|DICT|INTERRES
    41   19   21 2    
    42   20   84 1    
    43   20   85 1    
    44   22   23 am   BACKBONE|DICT|INTERRES
    45   22   86 1    
    46   23   24 2    
    47   23   25 1    
    48   25   26 1    
    49   25   27 1    
    50   25   87 1    
    51   26   88 1    
    52   26   89 1    
    53   26   90 1    
    54   27   28 am   BACKBONE|DICT|INTERRES
    55   27   91 1    
    56   28   29 2    
    57   28   30 1    
    58   30   31 1    
    59   30   32 1    
    60   30   92 1    
    61   31   93 1    
    62   31   94 1    
    63   31   95 1    
    64   32   33 am   BACKBONE|DICT|INTERRES
    65   32   96 1    
    66   33   34 2    
    67   33   35 1    
    68   35   36 1    
    69   35   37 1    
    70   35   97 1    
    71   36   98 1    
    72   36   99 1    
    73   36  100 1    
    74   37   38 am   BACKBONE|DICT|INTERRES
    75   37  101 1    
    76   38   39 2    
    77   38   40 1    
    78   40   41 1    
    79   40   42 1    
    80   40  102 1    
    81   41  103 1    
    82   41  104 1    
    83   41  105 1    
    84   42   43 am   BACKBONE|DICT|INTERRES
    85   42  106 1    
    86   43   44 2    
    87   43   45 1    
    88   45   46 1    
    89   45   49 1    
    90   45  107 1    
    91   46   47 1    
    92   46  108 1    
    93   46  109 1    
    94   47   48 1    
    95   48  110 1    
    96   48  111 1    
    97   49   50 am   BACKBONE|DICT|INTERRES
    98   49  112 1    
    99   50   51 2    
   100   50   52 1    
   101   52   53 1    
   102   52   54 1    
   103   52  113 1    
   104   53  114 1    
   105   53  115 1    
   106   53  116 1    
   107   54   55 am   BACKBONE|DICT|INTERRES
   108   54  117 1    
   109   55   56 2    
   110   55   57 1    
   111   57   58 1    
   112   57   59 1    
   113   57  118 1    
   114   58  119 1    
   115   58  120 1    
   116   58  121 1    
   117   59   60 am   BACKBONE|DICT|INTERRES
   118   59  122 1    
   119   60   61 2    
   120   60   62 1    
   121   62   63 1    
   122   62   64 1    
   123   62  123 1    
   124   63  124 1    
   125   63  125 1    
   126   63  126 1    
   127   64   65 am   BACKBONE|DICT|INTERRES
   128   64  127 1    
   129   65   66 2    
@<TRIPOS>SUBSTRUCTURE
     1 UNK         1 GROUP             0       ****    0 ROOT    
