@<TRIPOS>MOLECULE
3R135
127   129    1
SMALL
USER_CHARGES


@<TRIPOS>ATOM
      1 CA        -85.4403   27.9501  -73.4480 C.3       0 UNK        -0.1998 
      2 C         -83.9193   27.9256  -73.4479 C.2       0 UNK         0.4909 
      3 O         -83.2911   28.9015  -73.8584 O.2       0 UNK        -0.5240 
      4 N         -83.3211   26.8168  -72.9901 N.am      1 UNK        -0.4739 
      5 CA        -81.8667   26.6162  -72.9366 C.3       1 UNK         0.0864 
      6 C6        -81.5015   25.5110  -71.9136 C.3       11 UNK        -0.0881 
      7 S7        -79.7465   25.5097  -71.4156 S.3       11 UNK        -0.2682 
      8 C8        -79.6565   26.9548  -70.3091 C.3       11 UNK         0.0289 
      9 C9        -78.5891   27.9373  -70.7727 C.ar      11 UNK        -0.0687 
     10 C10       -78.9021   28.9449  -71.6909 C.ar      11 UNK        -0.0823 
     11 C11       -77.9244   29.8445  -72.1275 C.ar      11 UNK        -0.0830 
     12 C12       -76.6256   29.7424  -71.6225 C.ar      11 UNK        -0.1021 
     13 C13       -76.3020   28.7468  -70.6954 C.ar      11 UNK        -0.0753 
     14 C14       -77.2853   27.8454  -70.2765 C.ar      11 UNK        -0.0933 
     15 C15       -74.8871   28.6454  -70.1534 C.3       11 UNK         0.0166 
     16 S16       -73.9207   27.4555  -71.1244 S.3       11 UNK        -0.2615 
     17 C17       -72.2264   28.0858  -70.8641 C.3       11 UNK        -0.0865 
     18 CA        -71.8279   29.2233  -71.8467 C.3       10 UNK         0.0862 
     19 C         -70.3228   29.5821  -71.6734 C.2       10 UNK         0.5551 
     20 N         -69.4535   29.2851  -72.6329 N.am      10 UNK        -0.7319 
     21 O         -69.9411   30.1363  -70.6457 O.2       10 UNK        -0.5018 
     22 N         -72.2372   28.9097  -73.2216 N.am      10 UNK        -0.4509 
     23 C         -72.2332   29.7376  -74.2729 C.2       10 UNK         0.4899 
     24 O         -71.9222   30.9275  -74.2101 O.2       10 UNK        -0.4839 
     25 CA        -72.6624   29.1185  -75.6196 C.3       9 UNK         0.0222 
     26 CB        -71.9901   29.7936  -76.8328 C.3       9 UNK        -0.1966 
     27 N         -72.4961   27.6570  -75.6644 N.am      9 UNK        -0.4218 
     28 C         -71.3481   26.9709  -75.5375 C.2       9 UNK         0.5020 
     29 O         -70.2385   27.4958  -75.4337 O.2       9 UNK        -0.5274 
     30 CA        -71.4569   25.4438  -75.4497 C.3       8 UNK         0.0270 
     31 CB        -71.6291   25.0129  -73.9819 C.3       8 UNK        -0.1976 
     32 N         -72.5782   24.9262  -76.2378 N.am      8 UNK        -0.4313 
     33 C         -72.4461   24.2534  -77.3871 C.2       8 UNK         0.5041 
     34 O         -71.3643   24.0165  -77.9273 O.2       8 UNK        -0.5577 
     35 CA        -73.7343   23.7280  -78.0374 C.3       7 UNK         0.0284 
     36 CB        -74.2221   22.4596  -77.3175 C.3       7 UNK        -0.1958 
     37 N         -74.8181   24.7113  -78.0859 N.am      7 UNK        -0.4454 
     38 C         -74.8400   25.7767  -78.9001 C.2       7 UNK         0.5089 
     39 O         -73.9010   26.1073  -79.6245 O.2       7 UNK        -0.5125 
     40 CA        -76.1398   26.5949  -78.9371 C.3       6 UNK         0.0408 
     41 CB        -77.2312   25.8380  -79.7103 C.3       6 UNK        -0.1791 
     42 N         -76.6138   26.8975  -77.5875 N.am      6 UNK        -0.4762 
     43 C         -76.3158   28.0209  -76.9176 C.2       6 UNK         0.5007 
     44 O         -75.6961   28.9611  -77.4146 O.2       6 UNK        -0.5032 
     45 CA        -76.7575   28.1093  -75.4382 C.3       5 UNK         0.0783 
     46 C46       -77.9742   29.0558  -75.2524 C.3       11 UNK        -0.0857 
     47 S47       -77.4492   30.7285  -74.7436 S.3       11 UNK        -0.2512 
     48 C48       -78.2817   30.9347  -73.1320 C.3       11 UNK         0.0225 
     49 N         -76.9656   26.7921  -74.8246 N.am      5 UNK        -0.4615 
     50 C         -75.9655   25.9305  -74.5869 C.2       4 UNK         0.5053 
     51 O         -74.7917   26.1498  -74.8913 O.2       4 UNK        -0.5105 
     52 CA        -76.3212   24.5752  -73.9621 C.3       4 UNK         0.0263 
     53 CB        -76.3015   24.6713  -72.4303 C.3       4 UNK        -0.1981 
     54 N         -77.5969   24.0181  -74.4237 N.am      4 UNK        -0.4224 
     55 C         -77.8465   23.6606  -75.6927 C.2       3 UNK         0.4895 
     56 O         -77.0823   23.8970  -76.6287 O.2       3 UNK        -0.5091 
     57 CA        -79.1601   22.9085  -75.9639 C.3       3 UNK         0.0250 
     58 CB        -79.4164   21.7840  -74.9430 C.3       3 UNK        -0.1996 
     59 N         -80.2974   23.8228  -75.9824 N.am      3 UNK        -0.4254 
     60 C         -80.5503   24.7167  -76.9479 C.2       2 UNK         0.5004 
     61 O         -79.9228   24.7853  -78.0036 O.2       2 UNK        -0.5226 
     62 CA        -81.6991   25.7114  -76.6996 C.3       2 UNK         0.0269 
     63 CB        -82.9528   25.2937  -77.4854 C.3       2 UNK        -0.1926 
     64 N         -82.0611   25.9015  -75.2892 N.am      2 UNK        -0.4687 
     65 C         -81.2458   26.3702  -74.3313 C.2       1 UNK         0.5165 
     66 O         -80.0529   26.6109  -74.5197 O.2       1 UNK        -0.5079 
     67 H67       -85.8130   28.0881  -74.4626 H         1 UNK         0.0900 
     68 H68       -85.8638   27.0266  -73.0535 H         1 UNK         0.0900 
     69 H69       -85.8017   28.7766  -72.8368 H         1 UNK         0.0900 
     70 H70       -83.8880   26.0490  -72.6571 H         1 UNK         0.2959 
     71 H71       -81.4403   27.5527  -72.5806 H         1 UNK         0.1079 
     72 H72       -81.7520   24.5238  -72.3064 H         1 UNK         0.0837 
     73 H73       -82.0975   25.6261  -71.0065 H         1 UNK         0.0837 
     74 H74       -79.4360   26.6095  -69.2979 H         1 UNK         0.0685 
     75 H75       -80.6226   27.4578  -70.2503 H         1 UNK         0.0685 
     76 H76       -79.9082   29.0327  -72.0718 H         1 UNK         0.1434 
     77 H77       -75.8655   30.4353  -71.9572 H         1 UNK         0.1329 
     78 H78       -77.0324   27.0678  -69.5686 H         1 UNK         0.1335 
     79 H79       -74.8991   28.3366  -69.1070 H         1 UNK         0.0680 
     80 H80       -74.4098   29.6260  -70.1820 H         1 UNK         0.0680 
     81 H81       -71.5484   27.2372  -70.9760 H         1 UNK         0.1032 
     82 H82       -72.1204   28.4173  -69.8292 H         1 UNK         0.1032 
     83 H83       -72.3859   30.1165  -71.5608 H         1 UNK         0.0461 
     84 H84       -69.7612   28.8302  -73.4811 H         1 UNK         0.3453 
     85 H85       -68.4818   29.5223  -72.5113 H         1 UNK         0.3453 
     86 H86       -72.5467   27.9610  -73.3692 H         1 UNK         0.2984 
     87 H87       -73.7326   29.3043  -75.6942 H         1 UNK         0.0554 
     88 H88       -72.2350   30.8554  -76.8748 H         1 UNK         0.0847 
     89 H89       -72.3286   29.3486  -77.7686 H         1 UNK         0.0847 
     90 H90       -70.9036   29.7125  -76.7937 H         1 UNK         0.0847 
     91 H91       -73.3608   27.1227  -75.6412 H         1 UNK         0.3141 
     92 H92       -70.5127   25.0296  -75.8096 H         1 UNK         0.0743 
     93 H93       -70.8043   25.3780  -73.3681 H         1 UNK         0.0784 
     94 H94       -72.5530   25.3959  -73.5466 H         1 UNK         0.0784 
     95 H95       -71.6436   23.9268  -73.8897 H         1 UNK         0.0784 
     96 H96       -73.5094   25.1118  -75.8761 H         1 UNK         0.3213 
     97 H97       -73.4914   23.4529  -79.0663 H         1 UNK         0.0855 
     98 H98       -74.5093   22.6636  -76.2855 H         1 UNK         0.0814 
     99 H99       -73.4413   21.6980  -77.2950 H         1 UNK         0.0814 
    100 H100      -75.0844   22.0244  -77.8230 H         1 UNK         0.0814 
    101 H101      -75.6526   24.4905  -77.5436 H         1 UNK         0.3105 
    102 H102      -75.9394   27.5224  -79.4778 H         1 UNK         0.0547 
    103 H103      -78.1497   26.4216  -79.7725 H         1 UNK         0.0837 
    104 H104      -76.9107   25.6265  -80.7311 H         1 UNK         0.0837 
    105 H105      -77.4763   24.8840  -79.2418 H         1 UNK         0.0837 
    106 H106      -77.1035   26.1565  -77.1016 H         1 UNK         0.3020 
    107 H107      -75.9092   28.5404  -74.9013 H         1 UNK         0.1245 
    108 H108      -78.6463   28.6715  -74.4885 H         1 UNK         0.0781 
    109 H109      -78.5851   29.1284  -76.1545 H         1 UNK         0.0781 
    110 H110      -79.3597   30.9714  -73.2976 H         1 UNK         0.0836 
    111 H111      -78.0066   31.9050  -72.7164 H         1 UNK         0.0836 
    112 H112      -77.9183   26.5473  -74.5743 H         1 UNK         0.3022 
    113 H113      -75.5428   23.8687  -74.2575 H         1 UNK         0.0747 
    114 H114      -76.6044   23.7358  -71.9603 H         1 UNK         0.0793 
    115 H115      -75.2969   24.9017  -72.0741 H         1 UNK         0.0793 
    116 H116      -76.9558   25.4636  -72.0680 H         1 UNK         0.0793 
    117 H117      -78.2951   23.8373  -73.7173 H         1 UNK         0.3047 
    118 H118      -79.0715   22.4484  -76.9507 H         1 UNK         0.0822 
    119 H119      -78.5533   21.1209  -74.8672 H         1 UNK         0.0807 
    120 H120      -80.2655   21.1700  -75.2440 H         1 UNK         0.0807 
    121 H121      -79.6258   22.1671  -73.9436 H         1 UNK         0.0807 
    122 H122      -80.8759   23.8523  -75.1565 H         1 UNK         0.2946 
    123 H123      -81.3608   26.6777  -77.0806 H         1 UNK         0.1144 
    124 H124      -83.7391   26.0450  -77.4089 H         1 UNK         0.0793 
    125 H125      -83.3558   24.3454  -77.1275 H         1 UNK         0.0793 
    126 H126      -82.7272   25.1722  -78.5460 H         1 UNK         0.0793 
    127 H127      -83.0263   25.7349  -75.0437 H         1 UNK         0.2896 
@<TRIPOS>BOND
     1    1    2 1    
     2    1   67 1    
     3    1   68 1    
     4    1   69 1    
     5    2    3 2    
     6    2    4 am   BACKBONE|DICT|INTERRES
     7    4    5 1    
     8    4   70 1    
     9    5    6 1    
    10    5   65 1    
    11    5   71 1    
    12    6    7 1    
    13    6   72 1    
    14    6   73 1    
    15    7    8 1    
    16    8    9 1    
    17    8   74 1    
    18    8   75 1    
    19    9   10 ar   
    20    9   14 ar   
    21   10   11 ar   
    22   10   76 1    
    23   11   12 ar   
    24   11   48 1    
    25   12   13 ar   
    26   12   77 1    
    27   13   14 ar   
    28   13   15 1    
    29   14   78 1    
    30   15   16 1    
    31   15   79 1    
    32   15   80 1    
    33   16   17 1    
    34   17   18 1    
    35   17   81 1    
    36   17   82 1    
    37   18   19 1    
    38   18   22 1    
    39   18   83 1    
    40   19   20 am   BACKBONE|DICT|INTERRES
    41   19   21 2    
    42   20   84 1    
    43   20   85 1    
    44   22   23 am   BACKBONE|DICT|INTERRES
    45   22   86 1    
    46   23   24 2    
    47   23   25 1    
    48   25   26 1    
    49   25   27 1    
    50   25   87 1    
    51   26   88 1    
    52   26   89 1    
    53   26   90 1    
    54   27   28 am   BACKBONE|DICT|INTERRES
    55   27   91 1    
    56   28   29 2    
    57   28   30 1    
    58   30   31 1    
    59   30   32 1    
    60   30   92 1    
    61   31   93 1    
    62   31   94 1    
    63   31   95 1    
    64   32   33 am   BACKBONE|DICT|INTERRES
    65   32   96 1    
    66   33   34 2    
    67   33   35 1    
    68   35   36 1    
    69   35   37 1    
    70   35   97 1    
    71   36   98 1    
    72   36   99 1    
    73   36  100 1    
    74   37   38 am   BACKBONE|DICT|INTERRES
    75   37  101 1    
    76   38   39 2    
    77   38   40 1    
    78   40   41 1    
    79   40   42 1    
    80   40  102 1    
    81   41  103 1    
    82   41  104 1    
    83   41  105 1    
    84   42   43 am   BACKBONE|DICT|INTERRES
    85   42  106 1    
    86   43   44 2    
    87   43   45 1    
    88   45   46 1    
    89   45   49 1    
    90   45  107 1    
    91   46   47 1    
    92   46  108 1    
    93   46  109 1    
    94   47   48 1    
    95   48  110 1    
    96   48  111 1    
    97   49   50 am   BACKBONE|DICT|INTERRES
    98   49  112 1    
    99   50   51 2    
   100   50   52 1    
   101   52   53 1    
   102   52   54 1    
   103   52  113 1    
   104   53  114 1    
   105   53  115 1    
   106   53  116 1    
   107   54   55 am   BACKBONE|DICT|INTERRES
   108   54  117 1    
   109   55   56 2    
   110   55   57 1    
   111   57   58 1    
   112   57   59 1    
   113   57  118 1    
   114   58  119 1    
   115   58  120 1    
   116   58  121 1    
   117   59   60 am   BACKBONE|DICT|INTERRES
   118   59  122 1    
   119   60   61 2    
   120   60   62 1    
   121   62   63 1    
   122   62   64 1    
   123   62  123 1    
   124   63  124 1    
   125   63  125 1    
   126   63  126 1    
   127   64   65 am   BACKBONE|DICT|INTERRES
   128   64  127 1    
   129   65   66 2    
@<TRIPOS>SUBSTRUCTURE
     1 UNK         1 GROUP             0       ****    0 ROOT    
