@<TRIPOS>MOLECULE
3R135
127   129    1
SMALL
USER_CHARGES


@<TRIPOS>ATOM
      1 CA        -82.9908   31.1486  -73.6147 C.3       0 UNK        -0.1998 
      2 C         -81.5982   30.5360  -73.5877 C.2       0 UNK         0.4909 
      3 O         -80.6158   31.2434  -73.8069 O.2       0 UNK        -0.5240 
      4 N         -81.5099   29.2298  -73.3107 N.am      1 UNK        -0.4739 
      5 CA        -80.2644   28.4554  -73.2825 C.3       1 UNK         0.0864 
      6 C6        -80.4814   27.0699  -72.6248 C.3       11 UNK        -0.0881 
      7 S7        -80.8935   27.2072  -70.8549 S.3       11 UNK        -0.2682 
      8 C8        -79.3651   26.5932  -70.0708 C.3       11 UNK         0.0289 
      9 C9        -78.1279   27.3719  -70.5023 C.ar      11 UNK        -0.0687 
     10 C10       -77.0710   26.7193  -71.1459 C.ar      11 UNK        -0.0823 
     11 C11       -75.9294   27.4277  -71.5381 C.ar      11 UNK        -0.0830 
     12 C12       -75.8520   28.7985  -71.2732 C.ar      11 UNK        -0.1021 
     13 C13       -76.9032   29.4637  -70.6372 C.ar      11 UNK        -0.0753 
     14 C14       -78.0353   28.7432  -70.2480 C.ar      11 UNK        -0.0933 
     15 C15       -76.8132   30.9550  -70.3513 C.3       11 UNK         0.0166 
     16 S16       -77.1572   31.9499  -71.8380 S.3       11 UNK        -0.2615 
     17 C17       -75.5026   32.1089  -72.5991 C.3       11 UNK        -0.0865 
     18 CA        -75.3045   31.2357  -73.8701 C.3       10 UNK         0.0862 
     19 C         -75.9174   31.9008  -75.1423 C.2       10 UNK         0.5551 
     20 N         -75.1327   32.2433  -76.1577 N.am      10 UNK        -0.7319 
     21 O         -77.1248   32.1050  -75.2182 O.2       10 UNK        -0.5018 
     22 N         -73.8878   30.8526  -74.0097 N.am      10 UNK        -0.4509 
     23 C         -73.4380   29.8022  -74.7072 C.2       10 UNK         0.4899 
     24 O         -74.1757   28.9870  -75.2642 O.2       10 UNK        -0.4839 
     25 CA        -71.9069   29.6866  -74.8587 C.3       9 UNK         0.0222 
     26 CB        -71.1150   30.1599  -73.6173 C.3       9 UNK        -0.1966 
     27 N         -71.5116   28.3432  -75.2945 N.am      9 UNK        -0.4218 
     28 C         -71.4843   27.2103  -74.5794 C.2       9 UNK         0.5020 
     29 O         -71.6036   27.1559  -73.3544 O.2       9 UNK        -0.5274 
     30 CA        -71.3197   25.9129  -75.3971 C.3       8 UNK         0.0270 
     31 CB        -71.1254   24.6730  -74.5059 C.3       8 UNK        -0.1976 
     32 N         -72.4754   25.6986  -76.2746 N.am      8 UNK        -0.4313 
     33 C         -72.7100   26.3685  -77.4125 C.2       8 UNK         0.5041 
     34 O         -71.9100   27.1795  -77.8869 O.2       8 UNK        -0.5577 
     35 CA        -74.0683   26.1496  -78.1053 C.3       7 UNK         0.0284 
     36 CB        -74.0271   26.4427  -79.6201 C.3       7 UNK        -0.1958 
     37 N         -74.6756   24.8435  -77.8349 N.am      7 UNK        -0.4454 
     38 C         -74.2247   23.6319  -78.1876 C.2       7 UNK         0.5089 
     39 O         -73.1885   23.4399  -78.8262 O.2       7 UNK        -0.5125 
     40 CA        -75.0922   22.4369  -77.7359 C.3       6 UNK         0.0408 
     41 CB        -74.3659   21.0821  -77.8735 C.3       6 UNK        -0.1791 
     42 N         -75.6386   22.5976  -76.3807 N.am      6 UNK        -0.4762 
     43 C         -74.9423   22.7772  -75.2454 C.2       6 UNK         0.5007 
     44 O         -73.7124   22.8023  -75.2057 O.2       6 UNK        -0.5032 
     45 CA        -75.7397   22.9637  -73.9367 C.3       5 UNK         0.0783 
     46 C46       -75.1400   24.0504  -73.0054 C.3       11 UNK        -0.0857 
     47 S47       -75.2347   25.7494  -73.6689 S.3       11 UNK        -0.2512 
     48 C48       -74.7536   26.7279  -72.2109 C.3       11 UNK         0.0225 
     49 N         -77.1647   23.1959  -74.1956 N.am      5 UNK        -0.4615 
     50 C         -78.1551   22.3741  -73.8242 C.2       4 UNK         0.5053 
     51 O         -77.9729   21.3112  -73.2304 O.2       4 UNK        -0.5105 
     52 CA        -79.5994   22.7981  -74.1511 C.3       4 UNK         0.0263 
     53 CB        -80.2972   23.3205  -72.8845 C.3       4 UNK        -0.1981 
     54 N         -79.7000   23.8057  -75.2110 N.am      4 UNK        -0.4224 
     55 C         -79.4647   23.5710  -76.5098 C.2       3 UNK         0.4895 
     56 O         -79.1261   22.4760  -76.9593 O.2       3 UNK        -0.5091 
     57 CA        -79.5895   24.7732  -77.4621 C.3       3 UNK         0.0250 
     58 CB        -81.0422   24.9407  -77.9344 C.3       3 UNK        -0.1996 
     59 N         -79.1160   26.0364  -76.8856 N.am      3 UNK        -0.4254 
     60 C         -77.8681   26.2672  -76.4599 C.2       2 UNK         0.5004 
     61 O         -76.9915   25.4056  -76.4573 O.2       2 UNK        -0.5226 
     62 CA        -77.5460   27.6713  -75.9224 C.3       2 UNK         0.0269 
     63 CB        -77.5967   28.7314  -77.0397 C.3       2 UNK        -0.1926 
     64 N         -78.3578   28.0467  -74.7559 N.am      2 UNK        -0.4687 
     65 C         -79.6802   28.2635  -74.6955 C.2       1 UNK         0.5165 
     66 O         -80.4325   28.2270  -75.6738 O.2       1 UNK        -0.5079 
     67 H67       -83.2068   31.5442  -74.6068 H         1 UNK         0.0900 
     68 H68       -83.7620   30.4202  -73.3645 H         1 UNK         0.0900 
     69 H69       -83.0544   31.9680  -72.8993 H         1 UNK         0.0900 
     70 H70       -82.3532   28.7000  -73.1447 H         1 UNK         0.2959 
     71 H71       -79.5345   29.0202  -72.6975 H         1 UNK         0.1079 
     72 H72       -79.5908   26.4485  -72.7283 H         1 UNK         0.0837 
     73 H73       -81.2851   26.5258  -73.1248 H         1 UNK         0.0837 
     74 H74       -79.2559   25.5312  -70.2958 H         1 UNK         0.0685 
     75 H75       -79.4709   26.6672  -68.9878 H         1 UNK         0.0685 
     76 H76       -77.1356   25.6581  -71.3387 H         1 UNK         0.1434 
     77 H77       -74.9690   29.3522  -71.5602 H         1 UNK         0.1329 
     78 H78       -78.8521   29.2490  -69.7511 H         1 UNK         0.1335 
     79 H79       -77.5378   31.2307  -69.5835 H         1 UNK         0.0680 
     80 H80       -75.8353   31.2026  -69.9366 H         1 UNK         0.0680 
     81 H81       -75.3217   33.1626  -72.8208 H         1 UNK         0.1032 
     82 H82       -74.7581   31.8511  -71.8451 H         1 UNK         0.1032 
     83 H83       -75.8626   30.3081  -73.7285 H         1 UNK         0.0461 
     84 H84       -75.5422   32.6693  -76.9739 H         1 UNK         0.3453 
     85 H85       -74.1402   32.0813  -76.1168 H         1 UNK         0.3453 
     86 H86       -73.2138   31.4910  -73.6138 H         1 UNK         0.2984 
     87 H87       -71.6374   30.3448  -75.6857 H         1 UNK         0.0554 
     88 H88       -71.1990   31.2379  -73.4781 H         1 UNK         0.0847 
     89 H89       -70.0525   29.9379  -73.7179 H         1 UNK         0.0847 
     90 H90       -71.4681   29.6841  -72.7015 H         1 UNK         0.0847 
     91 H91       -71.4775   28.2143  -76.3037 H         1 UNK         0.3141 
     92 H92       -70.4243   26.0213  -76.0128 H         1 UNK         0.0743 
     93 H93       -70.2459   24.7824  -73.8704 H         1 UNK         0.0784 
     94 H94       -70.9854   23.7721  -75.1037 H         1 UNK         0.0784 
     95 H95       -71.9827   24.5098  -73.8520 H         1 UNK         0.0784 
     96 H96       -73.1795   25.0531  -75.9401 H         1 UNK         0.3213 
     97 H97       -74.7393   26.8816  -77.6528 H         1 UNK         0.0855 
     98 H98       -73.3182   25.7966  -80.1384 H         1 UNK         0.0814 
     99 H99       -73.7252   27.4732  -79.8111 H         1 UNK         0.0814 
    100 H100      -75.0066   26.3046  -80.0777 H         1 UNK         0.0814 
    101 H101      -75.5389   24.8855  -77.2896 H         1 UNK         0.3105 
    102 H102      -75.9521   22.4185  -78.4071 H         1 UNK         0.0547 
    103 H103      -75.0075   20.2549  -77.5707 H         1 UNK         0.0837 
    104 H104      -73.4602   21.0446  -77.2674 H         1 UNK         0.0837 
    105 H105      -74.0713   20.8998  -78.9077 H         1 UNK         0.0837 
    106 H106      -76.6483   22.6122  -76.3170 H         1 UNK         0.3020 
    107 H107      -75.6161   22.0111  -73.4168 H         1 UNK         0.1245 
    108 H108      -74.0969   23.8257  -72.7766 H         1 UNK         0.0781 
    109 H109      -75.6579   24.0211  -72.0465 H         1 UNK         0.0781 
    110 H110      -74.0276   27.4693  -72.5443 H         1 UNK         0.0836 
    111 H111      -74.2346   26.1023  -71.4839 H         1 UNK         0.0836 
    112 H112      -77.3784   24.0440  -74.7059 H         1 UNK         0.3022 
    113 H113      -80.1320   21.9057  -74.4875 H         1 UNK         0.0747 
    114 H114      -81.3183   23.6423  -73.0897 H         1 UNK         0.0793 
    115 H115      -80.3530   22.5397  -72.1246 H         1 UNK         0.0793 
    116 H116      -79.7580   24.1571  -72.4420 H         1 UNK         0.0793 
    117 H117      -79.9695   24.7381  -74.9368 H         1 UNK         0.3047 
    118 H118      -78.9684   24.5606  -78.3349 H         1 UNK         0.0822 
    119 H119      -81.1254   25.7226  -78.6895 H         1 UNK         0.0807 
    120 H120      -81.7086   25.1989  -77.1103 H         1 UNK         0.0807 
    121 H121      -81.4169   24.0190  -78.3820 H         1 UNK         0.0807 
    122 H122      -79.7877   26.7933  -76.7889 H         1 UNK         0.2946 
    123 H123      -76.5148   27.6367  -75.5668 H         1 UNK         0.1144 
    124 H124      -77.2892   29.7077  -76.6682 H         1 UNK         0.0793 
    125 H125      -78.5922   28.8376  -77.4706 H         1 UNK         0.0793 
    126 H126      -76.9184   28.4690  -77.8526 H         1 UNK         0.0793 
    127 H127      -77.8420   28.0679  -73.8858 H         1 UNK         0.2896 
@<TRIPOS>BOND
     1    1    2 1    
     2    1   67 1    
     3    1   68 1    
     4    1   69 1    
     5    2    3 2    
     6    2    4 am   BACKBONE|DICT|INTERRES
     7    4    5 1    
     8    4   70 1    
     9    5    6 1    
    10    5   65 1    
    11    5   71 1    
    12    6    7 1    
    13    6   72 1    
    14    6   73 1    
    15    7    8 1    
    16    8    9 1    
    17    8   74 1    
    18    8   75 1    
    19    9   10 ar   
    20    9   14 ar   
    21   10   11 ar   
    22   10   76 1    
    23   11   12 ar   
    24   11   48 1    
    25   12   13 ar   
    26   12   77 1    
    27   13   14 ar   
    28   13   15 1    
    29   14   78 1    
    30   15   16 1    
    31   15   79 1    
    32   15   80 1    
    33   16   17 1    
    34   17   18 1    
    35   17   81 1    
    36   17   82 1    
    37   18   19 1    
    38   18   22 1    
    39   18   83 1    
    40   19   20 am   BACKBONE|DICT|INTERRES
    41   19   21 2    
    42   20   84 1    
    43   20   85 1    
    44   22   23 am   BACKBONE|DICT|INTERRES
    45   22   86 1    
    46   23   24 2    
    47   23   25 1    
    48   25   26 1    
    49   25   27 1    
    50   25   87 1    
    51   26   88 1    
    52   26   89 1    
    53   26   90 1    
    54   27   28 am   BACKBONE|DICT|INTERRES
    55   27   91 1    
    56   28   29 2    
    57   28   30 1    
    58   30   31 1    
    59   30   32 1    
    60   30   92 1    
    61   31   93 1    
    62   31   94 1    
    63   31   95 1    
    64   32   33 am   BACKBONE|DICT|INTERRES
    65   32   96 1    
    66   33   34 2    
    67   33   35 1    
    68   35   36 1    
    69   35   37 1    
    70   35   97 1    
    71   36   98 1    
    72   36   99 1    
    73   36  100 1    
    74   37   38 am   BACKBONE|DICT|INTERRES
    75   37  101 1    
    76   38   39 2    
    77   38   40 1    
    78   40   41 1    
    79   40   42 1    
    80   40  102 1    
    81   41  103 1    
    82   41  104 1    
    83   41  105 1    
    84   42   43 am   BACKBONE|DICT|INTERRES
    85   42  106 1    
    86   43   44 2    
    87   43   45 1    
    88   45   46 1    
    89   45   49 1    
    90   45  107 1    
    91   46   47 1    
    92   46  108 1    
    93   46  109 1    
    94   47   48 1    
    95   48  110 1    
    96   48  111 1    
    97   49   50 am   BACKBONE|DICT|INTERRES
    98   49  112 1    
    99   50   51 2    
   100   50   52 1    
   101   52   53 1    
   102   52   54 1    
   103   52  113 1    
   104   53  114 1    
   105   53  115 1    
   106   53  116 1    
   107   54   55 am   BACKBONE|DICT|INTERRES
   108   54  117 1    
   109   55   56 2    
   110   55   57 1    
   111   57   58 1    
   112   57   59 1    
   113   57  118 1    
   114   58  119 1    
   115   58  120 1    
   116   58  121 1    
   117   59   60 am   BACKBONE|DICT|INTERRES
   118   59  122 1    
   119   60   61 2    
   120   60   62 1    
   121   62   63 1    
   122   62   64 1    
   123   62  123 1    
   124   63  124 1    
   125   63  125 1    
   126   63  126 1    
   127   64   65 am   BACKBONE|DICT|INTERRES
   128   64  127 1    
   129   65   66 2    
@<TRIPOS>SUBSTRUCTURE
     1 UNK         1 GROUP             0       ****    0 ROOT    
