@<TRIPOS>MOLECULE
3R135
127   129    1
SMALL
USER_CHARGES


@<TRIPOS>ATOM
      1 CA        -83.5025   27.4377  -71.4231 C.3       0 UNK        -0.1998 
      2 C         -83.2042   27.6568  -72.8986 C.2       0 UNK         0.4909 
      3 O         -84.1050   27.5411  -73.7301 O.2       0 UNK        -0.5240 
      4 N         -81.9452   27.9733  -73.2279 N.am      1 UNK        -0.4739 
      5 CA        -81.4699   28.2046  -74.5993 C.3       1 UNK         0.0864 
      6 C6        -80.1326   28.9813  -74.6201 C.3       11 UNK        -0.0881 
      7 S7        -80.2796   30.6789  -73.9529 S.3       11 UNK        -0.2682 
      8 C8        -79.8344   30.5053  -72.1907 C.3       11 UNK         0.0289 
      9 C9        -78.4515   29.9032  -71.9919 C.ar      11 UNK        -0.0687 
     10 C10       -78.3175   28.5917  -71.5280 C.ar      11 UNK        -0.0823 
     11 C11       -77.0543   28.0103  -71.3970 C.ar      11 UNK        -0.0830 
     12 C12       -75.9162   28.7622  -71.7067 C.ar      11 UNK        -0.1021 
     13 C13       -76.0352   30.0864  -72.1430 C.ar      11 UNK        -0.0753 
     14 C14       -77.3069   30.6504  -72.2846 C.ar      11 UNK        -0.0933 
     15 C15       -74.7973   30.8926  -72.5087 C.3       11 UNK         0.0166 
     16 S16       -73.6276   31.0424  -71.1236 S.3       11 UNK        -0.2615 
     17 C17       -72.2383   31.8952  -71.9520 C.3       11 UNK        -0.0865 
     18 CA        -71.0536   30.9652  -72.3309 C.3       10 UNK         0.0862 
     19 C         -70.2386   30.4983  -71.0878 C.2       10 UNK         0.5551 
     20 N         -70.0863   29.2031  -70.8385 N.am      10 UNK        -0.7319 
     21 O         -69.7205   31.3297  -70.3461 O.2       10 UNK        -0.5018 
     22 N         -71.4768   29.8870  -73.2409 N.am      10 UNK        -0.4509 
     23 C         -70.6841   29.2778  -74.1324 C.2       10 UNK         0.4899 
     24 O         -69.5019   29.5712  -74.3126 O.2       10 UNK        -0.4839 
     25 CA        -71.3068   28.1365  -74.9603 C.3       9 UNK         0.0222 
     26 CB        -71.0592   26.7965  -74.2467 C.3       9 UNK        -0.1966 
     27 N         -72.7434   28.2909  -75.2342 N.am      9 UNK        -0.4218 
     28 C         -73.2924   29.3090  -75.9130 C.2       9 UNK         0.5020 
     29 O         -72.6361   30.2019  -76.4521 O.2       9 UNK        -0.5274 
     30 CA        -74.8244   29.3297  -76.0123 C.3       8 UNK         0.0270 
     31 CB        -75.3700   30.7516  -76.2780 C.3       8 UNK        -0.1976 
     32 N         -75.2485   28.4016  -77.0553 N.am      8 UNK        -0.4313 
     33 C         -76.5016   27.9852  -77.2704 C.2       8 UNK         0.5041 
     34 O         -77.4741   28.3769  -76.6287 O.2       8 UNK        -0.5577 
     35 CA        -76.7134   26.9241  -78.3642 C.3       7 UNK         0.0284 
     36 CB        -76.4974   27.4960  -79.7798 C.3       7 UNK        -0.1958 
     37 N         -75.9261   25.7113  -78.1198 N.am      7 UNK        -0.4454 
     38 C         -74.5941   25.5577  -78.1458 C.2       7 UNK         0.5089 
     39 O         -73.8043   26.4142  -78.5487 O.2       7 UNK        -0.5125 
     40 CA        -74.0789   24.2529  -77.5124 C.3       6 UNK         0.0408 
     41 CB        -72.5452   24.2182  -77.3581 C.3       6 UNK        -0.1791 
     42 N         -74.7549   23.9942  -76.2326 N.am      6 UNK        -0.4762 
     43 C         -74.7611   24.7808  -75.1397 C.2       6 UNK         0.5007 
     44 O         -74.0685   25.7930  -75.0302 O.2       6 UNK        -0.5032 
     45 CA        -75.7366   24.4324  -73.9928 C.3       5 UNK         0.0783 
     46 C46       -76.5632   25.6837  -73.6015 C.3       11 UNK        -0.0857 
     47 S47       -77.6392   25.4025  -72.1549 S.3       11 UNK        -0.2512 
     48 C48       -76.9264   26.5623  -70.9410 C.3       11 UNK         0.0225 
     49 N         -76.6021   23.2985  -74.3327 N.am      5 UNK        -0.4615 
     50 C         -76.2715   22.0083  -74.1843 C.2       4 UNK         0.5053 
     51 O         -75.2175   21.6325  -73.6717 O.2       4 UNK        -0.5105 
     52 CA        -77.2582   20.9531  -74.7235 C.3       4 UNK         0.0263 
     53 CB        -78.0894   20.3647  -73.5720 C.3       4 UNK        -0.1981 
     54 N         -78.1675   21.4557  -75.7583 N.am      4 UNK        -0.4224 
     55 C         -77.8040   21.9463  -76.9533 C.2       3 UNK         0.4895 
     56 O         -76.6424   21.9693  -77.3587 O.2       3 UNK        -0.5091 
     57 CA        -78.9143   22.5820  -77.8121 C.3       3 UNK         0.0250 
     58 CB        -79.4577   21.5643  -78.8272 C.3       3 UNK        -0.1996 
     59 N         -80.0262   23.1284  -77.0223 N.am      3 UNK        -0.4254 
     60 C         -79.9099   24.1126  -76.1186 C.2       2 UNK         0.5004 
     61 O         -78.8487   24.6902  -75.8755 O.2       2 UNK        -0.5226 
     62 CA        -81.1659   24.4122  -75.2847 C.3       2 UNK         0.0269 
     63 CB        -81.2802   23.4030  -74.1289 C.3       2 UNK        -0.1926 
     64 N         -81.1733   25.7611  -74.7179 N.am      2 UNK        -0.4687 
     65 C         -81.3672   26.8923  -75.4112 C.2       1 UNK         0.5165 
     66 O         -81.5164   26.9235  -76.6340 O.2       1 UNK        -0.5079 
     67 H67       -82.6188   27.5805  -70.8014 H         1 UNK         0.0900 
     68 H68       -84.2686   28.1364  -71.0880 H         1 UNK         0.0900 
     69 H69       -83.8707   26.4249  -71.2616 H         1 UNK         0.0900 
     70 H70       -81.2498   28.0628  -72.5036 H         1 UNK         0.2959 
     71 H71       -82.2166   28.8184  -75.1088 H         1 UNK         0.1079 
     72 H72       -79.7905   29.0905  -75.6507 H         1 UNK         0.0837 
     73 H73       -79.3435   28.4271  -74.1107 H         1 UNK         0.0837 
     74 H74       -80.5948   29.9139  -71.6799 H         1 UNK         0.0685 
     75 H75       -79.8629   31.4922  -71.7266 H         1 UNK         0.0685 
     76 H76       -79.1957   28.0060  -71.2953 H         1 UNK         0.1434 
     77 H77       -74.9347   28.3181  -71.6125 H         1 UNK         0.1329 
     78 H78       -77.4125   31.6648  -72.6445 H         1 UNK         0.1335 
     79 H79       -74.2983   30.4081  -73.3449 H         1 UNK         0.0680 
     80 H80       -75.0728   31.8927  -72.8475 H         1 UNK         0.0680 
     81 H81       -71.8954   32.7015  -71.3007 H         1 UNK         0.1032 
     82 H82       -72.6051   32.3964  -72.8491 H         1 UNK         0.1032 
     83 H83       -70.3560   31.5898  -72.8925 H         1 UNK         0.0461 
     84 H84       -69.5514   28.9136  -70.0349 H         1 UNK         0.3453 
     85 H85       -70.5040   28.5156  -71.4433 H         1 UNK         0.3453 
     86 H86       -72.4220   29.5565  -73.1255 H         1 UNK         0.2984 
     87 H87       -70.7914   28.1115  -75.9225 H         1 UNK         0.0554 
     88 H88       -70.0021   26.6656  -74.0105 H         1 UNK         0.0847 
     89 H89       -71.3510   25.9515  -74.8671 H         1 UNK         0.0847 
     90 H90       -71.6148   26.7275  -73.3108 H         1 UNK         0.0847 
     91 H91       -73.3389   27.5151  -74.9485 H         1 UNK         0.3141 
     92 H92       -75.2270   28.9775  -75.0600 H         1 UNK         0.0743 
     93 H93       -74.9611   31.4698  -75.5666 H         1 UNK         0.0784 
     94 H94       -76.4547   30.7912  -76.1790 H         1 UNK         0.0784 
     95 H95       -75.1117   31.1004  -77.2784 H         1 UNK         0.0784 
     96 H96       -74.5089   27.9685  -77.6051 H         1 UNK         0.3213 
     97 H97       -77.7574   26.6114  -78.2971 H         1 UNK         0.0855 
     98 H98       -75.4842   27.8692  -79.9287 H         1 UNK         0.0814 
     99 H99       -77.1760   28.3296  -79.9646 H         1 UNK         0.0814 
    100 H100      -76.6927   26.7437  -80.5439 H         1 UNK         0.0814 
    101 H101      -76.4527   24.9485  -77.7171 H         1 UNK         0.3105 
    102 H102      -74.3638   23.4425  -78.1847 H         1 UNK         0.0547 
    103 H103      -72.2144   23.3114  -76.8524 H         1 UNK         0.0837 
    104 H104      -72.1760   25.0740  -76.7952 H         1 UNK         0.0837 
    105 H105      -72.0587   24.2441  -78.3336 H         1 UNK         0.0837 
    106 H106      -75.3750   23.1913  -76.2408 H         1 UNK         0.3020 
    107 H107      -75.1154   24.1601  -73.1364 H         1 UNK         0.1245 
    108 H108      -77.1872   26.0166  -74.4322 H         1 UNK         0.0781 
    109 H109      -75.8995   26.5216  -73.3880 H         1 UNK         0.0781 
    110 H110      -75.8831   26.2978  -70.7617 H         1 UNK         0.0836 
    111 H111      -77.4422   26.4397  -69.9877 H         1 UNK         0.0836 
    112 H112      -77.4835   23.5449  -74.7696 H         1 UNK         0.3022 
    113 H113      -76.6648   20.1508  -75.1669 H         1 UNK         0.0747 
    114 H114      -78.7333   19.5559  -73.9181 H         1 UNK         0.0793 
    115 H115      -77.4436   19.9513  -72.7958 H         1 UNK         0.0793 
    116 H116      -78.7198   21.1208  -73.1019 H         1 UNK         0.0793 
    117 H117      -79.1481   21.4758  -75.5216 H         1 UNK         0.3047 
    118 H118      -78.4641   23.4096  -78.3645 H         1 UNK         0.0822 
    119 H119      -80.1804   22.0233  -79.5022 H         1 UNK         0.0807 
    120 H120      -79.9443   20.7211  -78.3353 H         1 UNK         0.0807 
    121 H121      -78.6530   21.1613  -79.4441 H         1 UNK         0.0807 
    122 H122      -80.9286   22.6946  -77.1579 H         1 UNK         0.2946 
    123 H123      -82.0411   24.3138  -75.9312 H         1 UNK         0.1144 
    124 H124      -82.1787   23.5785  -73.5367 H         1 UNK         0.0793 
    125 H125      -80.4210   23.4598  -73.4583 H         1 UNK         0.0793 
    126 H126      -81.3384   22.3789  -74.4996 H         1 UNK         0.0793 
    127 H127      -81.0336   25.8342  -73.7215 H         1 UNK         0.2896 
@<TRIPOS>BOND
     1    1    2 1    
     2    1   67 1    
     3    1   68 1    
     4    1   69 1    
     5    2    3 2    
     6    2    4 am   BACKBONE|DICT|INTERRES
     7    4    5 1    
     8    4   70 1    
     9    5    6 1    
    10    5   65 1    
    11    5   71 1    
    12    6    7 1    
    13    6   72 1    
    14    6   73 1    
    15    7    8 1    
    16    8    9 1    
    17    8   74 1    
    18    8   75 1    
    19    9   10 ar   
    20    9   14 ar   
    21   10   11 ar   
    22   10   76 1    
    23   11   12 ar   
    24   11   48 1    
    25   12   13 ar   
    26   12   77 1    
    27   13   14 ar   
    28   13   15 1    
    29   14   78 1    
    30   15   16 1    
    31   15   79 1    
    32   15   80 1    
    33   16   17 1    
    34   17   18 1    
    35   17   81 1    
    36   17   82 1    
    37   18   19 1    
    38   18   22 1    
    39   18   83 1    
    40   19   20 am   BACKBONE|DICT|INTERRES
    41   19   21 2    
    42   20   84 1    
    43   20   85 1    
    44   22   23 am   BACKBONE|DICT|INTERRES
    45   22   86 1    
    46   23   24 2    
    47   23   25 1    
    48   25   26 1    
    49   25   27 1    
    50   25   87 1    
    51   26   88 1    
    52   26   89 1    
    53   26   90 1    
    54   27   28 am   BACKBONE|DICT|INTERRES
    55   27   91 1    
    56   28   29 2    
    57   28   30 1    
    58   30   31 1    
    59   30   32 1    
    60   30   92 1    
    61   31   93 1    
    62   31   94 1    
    63   31   95 1    
    64   32   33 am   BACKBONE|DICT|INTERRES
    65   32   96 1    
    66   33   34 2    
    67   33   35 1    
    68   35   36 1    
    69   35   37 1    
    70   35   97 1    
    71   36   98 1    
    72   36   99 1    
    73   36  100 1    
    74   37   38 am   BACKBONE|DICT|INTERRES
    75   37  101 1    
    76   38   39 2    
    77   38   40 1    
    78   40   41 1    
    79   40   42 1    
    80   40  102 1    
    81   41  103 1    
    82   41  104 1    
    83   41  105 1    
    84   42   43 am   BACKBONE|DICT|INTERRES
    85   42  106 1    
    86   43   44 2    
    87   43   45 1    
    88   45   46 1    
    89   45   49 1    
    90   45  107 1    
    91   46   47 1    
    92   46  108 1    
    93   46  109 1    
    94   47   48 1    
    95   48  110 1    
    96   48  111 1    
    97   49   50 am   BACKBONE|DICT|INTERRES
    98   49  112 1    
    99   50   51 2    
   100   50   52 1    
   101   52   53 1    
   102   52   54 1    
   103   52  113 1    
   104   53  114 1    
   105   53  115 1    
   106   53  116 1    
   107   54   55 am   BACKBONE|DICT|INTERRES
   108   54  117 1    
   109   55   56 2    
   110   55   57 1    
   111   57   58 1    
   112   57   59 1    
   113   57  118 1    
   114   58  119 1    
   115   58  120 1    
   116   58  121 1    
   117   59   60 am   BACKBONE|DICT|INTERRES
   118   59  122 1    
   119   60   61 2    
   120   60   62 1    
   121   62   63 1    
   122   62   64 1    
   123   62  123 1    
   124   63  124 1    
   125   63  125 1    
   126   63  126 1    
   127   64   65 am   BACKBONE|DICT|INTERRES
   128   64  127 1    
   129   65   66 2    
@<TRIPOS>SUBSTRUCTURE
     1 UNK         1 GROUP             0       ****    0 ROOT    
