@<TRIPOS>MOLECULE
3R135
127   129    1
SMALL
USER_CHARGES


@<TRIPOS>ATOM
      1 CA        -85.1483   26.6170  -72.2148 C.3       0 UNK        -0.1998 
      2 C         -83.8501   27.2263  -71.6925 C.2       0 UNK         0.4909 
      3 O         -83.5992   27.1744  -70.4903 O.2       0 UNK        -0.5240 
      4 N         -82.9948   27.8163  -72.5400 N.am      1 UNK        -0.4739 
      5 CA        -83.1118   27.9184  -74.0024 C.3       1 UNK         0.0864 
      6 C6        -82.2372   29.0735  -74.5599 C.3       11 UNK        -0.0881 
      7 S7        -80.4392   28.8326  -74.3332 S.3       11 UNK        -0.2682 
      8 C8        -80.1199   29.8105  -72.8357 C.3       11 UNK         0.0289 
      9 C9        -78.8067   29.3898  -72.1984 C.ar      11 UNK        -0.0687 
     10 C10       -78.7376   28.2058  -71.4586 C.ar      11 UNK        -0.0823 
     11 C11       -77.5342   27.8034  -70.8724 C.ar      11 UNK        -0.0830 
     12 C12       -76.3940   28.5991  -71.0259 C.ar      11 UNK        -0.1021 
     13 C13       -76.4534   29.7864  -71.7619 C.ar      11 UNK        -0.0753 
     14 C14       -77.6623   30.1770  -72.3457 C.ar      11 UNK        -0.0933 
     15 C15       -75.2204   30.6593  -71.9246 C.3       11 UNK         0.0166 
     16 S16       -74.5140   30.4810  -73.5885 S.3       11 UNK        -0.2615 
     17 C17       -73.3131   31.8603  -73.6053 C.3       11 UNK        -0.0865 
     18 CA        -71.8443   31.4131  -73.8279 C.3       10 UNK         0.0862 
     19 C         -71.1946   30.7805  -72.5602 C.2       10 UNK         0.5551 
     20 N         -70.4793   29.6653  -72.6571 N.am      10 UNK        -0.7319 
     21 O         -71.3254   31.3240  -71.4662 O.2       10 UNK        -0.5018 
     22 N         -71.7324   30.5936  -75.0404 N.am      10 UNK        -0.4509 
     23 C         -70.6962   30.5681  -75.8822 C.2       10 UNK         0.4899 
     24 O         -69.7119   31.3037  -75.7930 O.2       10 UNK        -0.4839 
     25 CA        -70.7913   29.5088  -76.9944 C.3       9 UNK         0.0222 
     26 CB        -69.5027   29.3921  -77.8362 C.3       9 UNK        -0.1966 
     27 N         -71.2016   28.1984  -76.4704 N.am      9 UNK        -0.4218 
     28 C         -70.5461   27.4413  -75.5726 C.2       9 UNK         0.5020 
     29 O         -69.4966   27.7885  -75.0291 O.2       9 UNK        -0.5274 
     30 CA        -71.1591   26.0808  -75.1761 C.3       8 UNK         0.0270 
     31 CB        -71.5144   26.0721  -73.6795 C.3       8 UNK        -0.1976 
     32 N         -72.3440   25.7118  -75.9573 N.am      8 UNK        -0.4313 
     33 C         -72.3251   25.3612  -77.2532 C.2       8 UNK         0.5041 
     34 O         -71.2834   25.1830  -77.8858 O.2       8 UNK        -0.5577 
     35 CA        -73.6705   25.2247  -77.9960 C.3       7 UNK         0.0284 
     36 CB        -73.9461   23.7501  -78.3341 C.3       7 UNK        -0.1958 
     37 N         -74.8329   25.7847  -77.2970 N.am      7 UNK        -0.4454 
     38 C         -74.9904   27.0564  -76.8988 C.2       7 UNK         0.5089 
     39 O         -74.1713   27.9490  -77.1253 O.2       7 UNK        -0.5125 
     40 CA        -76.2327   27.3602  -76.0365 C.3       6 UNK         0.0408 
     41 CB        -77.4155   27.7724  -76.9238 C.3       6 UNK        -0.1791 
     42 N         -76.6343   26.2432  -75.1689 N.am      6 UNK        -0.4762 
     43 C         -75.8496   25.6805  -74.2343 C.2       6 UNK         0.5007 
     44 O         -74.6974   26.0471  -74.0055 O.2       6 UNK        -0.5032 
     45 CA        -76.4087   24.4506  -73.4961 C.3       5 UNK         0.0783 
     46 C46       -77.3620   24.8294  -72.3363 C.3       11 UNK        -0.0857 
     47 S47       -76.4288   25.2468  -70.8247 S.3       11 UNK        -0.2512 
     48 C48       -77.4757   26.5209  -70.0545 C.3       11 UNK         0.0225 
     49 N         -77.0358   23.5373  -74.4524 N.am      5 UNK        -0.4615 
     50 C         -76.3640   22.6126  -75.1535 C.2       4 UNK         0.5053 
     51 O         -75.1668   22.3748  -74.9959 O.2       4 UNK        -0.5105 
     52 CA        -77.1433   21.8148  -76.2157 C.3       4 UNK         0.0263 
     53 CB        -77.6021   20.4652  -75.6407 C.3       4 UNK        -0.1981 
     54 N         -78.3035   22.5272  -76.7545 N.am      4 UNK        -0.4224 
     55 C         -78.2416   23.6474  -77.4882 C.2       3 UNK         0.4895 
     56 O         -77.1907   24.1841  -77.8332 O.2       3 UNK        -0.5091 
     57 CA        -79.5807   24.3140  -77.8452 C.3       3 UNK         0.0250 
     58 CB        -80.1253   23.7543  -79.1687 C.3       3 UNK        -0.1996 
     59 N         -80.6013   24.1860  -76.7982 N.am      3 UNK        -0.4254 
     60 C         -80.4675   24.6298  -75.5405 C.2       2 UNK         0.5004 
     61 O         -79.4448   25.1656  -75.1039 O.2       2 UNK        -0.5226 
     62 CA        -81.6545   24.3942  -74.5962 C.3       2 UNK         0.0269 
     63 CB        -81.2532   23.4566  -73.4451 C.3       2 UNK        -0.1926 
     64 N         -82.1177   25.6634  -74.0433 N.am      2 UNK        -0.4687 
     65 C         -82.8199   26.5818  -74.7227 C.2       1 UNK         0.5165 
     66 O         -83.2452   26.4045  -75.8650 O.2       1 UNK        -0.5079 
     67 H67       -84.9486   25.7746  -72.8758 H         1 UNK         0.0900 
     68 H68       -85.7425   27.3563  -72.7504 H         1 UNK         0.0900 
     69 H69       -85.7542   26.2485  -71.3871 H         1 UNK         0.0900 
     70 H70       -82.1484   28.2112  -72.1591 H         1 UNK         0.2959 
     71 H71       -84.1466   28.1712  -74.2404 H         1 UNK         0.1079 
     72 H72       -82.4241   29.1984  -75.6283 H         1 UNK         0.0837 
     73 H73       -82.5352   30.0195  -74.1049 H         1 UNK         0.0837 
     74 H74       -80.1067   30.8703  -73.0949 H         1 UNK         0.0685 
     75 H75       -80.9274   29.6797  -72.1150 H         1 UNK         0.0685 
     76 H76       -79.6228   27.5951  -71.3462 H         1 UNK         0.1434 
     77 H77       -75.4610   28.2898  -70.5745 H         1 UNK         0.1329 
     78 H78       -77.7073   31.0919  -72.9207 H         1 UNK         0.1335 
     79 H79       -75.4950   31.7010  -71.7513 H         1 UNK         0.0680 
     80 H80       -74.4617   30.4076  -71.1816 H         1 UNK         0.0680 
     81 H81       -73.4016   32.4577  -72.6960 H         1 UNK         0.1032 
     82 H82       -73.6052   32.5326  -74.4135 H         1 UNK         0.1032 
     83 H83       -71.2722   32.3274  -73.9964 H         1 UNK         0.0461 
     84 H84       -70.0618   29.2794  -71.8256 H         1 UNK         0.3453 
     85 H85       -70.3090   29.2301  -73.5534 H         1 UNK         0.3453 
     86 H86       -72.4903   29.9411  -75.1844 H         1 UNK         0.2984 
     87 H87       -71.5913   29.8342  -77.6612 H         1 UNK         0.0554 
     88 H88       -69.6096   28.6456  -78.6232 H         1 UNK         0.0847 
     89 H89       -68.6416   29.1155  -77.2268 H         1 UNK         0.0847 
     90 H90       -69.2656   30.3407  -78.3194 H         1 UNK         0.0847 
     91 H91       -72.1016   27.8648  -76.8012 H         1 UNK         0.3141 
     92 H92       -70.3937   25.3211  -75.3472 H         1 UNK         0.0743 
     93 H93       -72.2195   26.8658  -73.4286 H         1 UNK         0.0784 
     94 H94       -71.9564   25.1220  -73.3786 H         1 UNK         0.0784 
     95 H95       -70.6259   26.2240  -73.0653 H         1 UNK         0.0784 
     96 H96       -73.2394   25.8279  -75.4922 H         1 UNK         0.3213 
     97 H97       -73.5667   25.7746  -78.9335 H         1 UNK         0.0855 
     98 H98       -74.1156   23.1567  -77.4354 H         1 UNK         0.0814 
     99 H99       -73.1042   23.3038  -78.8654 H         1 UNK         0.0814 
    100 H100      -74.8199   23.6457  -78.9771 H         1 UNK         0.0814 
    101 H101      -75.6095   25.1478  -77.1427 H         1 UNK         0.3105 
    102 H102      -75.9858   28.2009  -75.3848 H         1 UNK         0.0547 
    103 H103      -77.1724   28.6627  -77.5051 H         1 UNK         0.0837 
    104 H104      -77.6815   26.9859  -77.6294 H         1 UNK         0.0837 
    105 H105      -78.2985   28.0043  -76.3286 H         1 UNK         0.0837 
    106 H106      -77.5814   25.8918  -75.2795 H         1 UNK         0.3020 
    107 H107      -75.5510   23.9314  -73.0606 H         1 UNK         0.1245 
    108 H108      -78.0021   23.9826  -72.0845 H         1 UNK         0.0781 
    109 H109      -78.0365   25.6389  -72.6212 H         1 UNK         0.0781 
    110 H110      -77.0777   26.7504  -69.0650 H         1 UNK         0.0836 
    111 H111      -78.4741   26.1112  -69.8926 H         1 UNK         0.0836 
    112 H112      -78.0036   23.7296  -74.6807 H         1 UNK         0.3022 
    113 H113      -76.4580   21.6203  -77.0437 H         1 UNK         0.0747 
    114 H114      -78.0819   19.8507  -76.4028 H         1 UNK         0.0793 
    115 H115      -76.7540   19.8965  -75.2563 H         1 UNK         0.0793 
    116 H116      -78.3070   20.5945  -74.8183 H         1 UNK         0.0793 
    117 H117      -79.2140   22.1590  -76.5215 H         1 UNK         0.3047 
    118 H118      -79.3891   25.3798  -77.9810 H         1 UNK         0.0822 
    119 H119      -81.0216   24.2873  -79.4866 H         1 UNK         0.0807 
    120 H120      -80.3734   22.6950  -79.0899 H         1 UNK         0.0807 
    121 H121      -79.3895   23.8581  -79.9676 H         1 UNK         0.0807 
    122 H122      -81.4762   23.7631  -77.0745 H         1 UNK         0.2946 
    123 H123      -82.4753   23.9311  -75.1490 H         1 UNK         0.1144 
    124 H124      -80.4528   23.8803  -72.8372 H         1 UNK         0.0793 
    125 H125      -80.9010   22.4970  -73.8259 H         1 UNK         0.0793 
    126 H126      -82.0989   23.2527  -72.7881 H         1 UNK         0.0793 
    127 H127      -81.7748   25.9127  -73.1273 H         1 UNK         0.2896 
@<TRIPOS>BOND
     1    1    2 1    
     2    1   67 1    
     3    1   68 1    
     4    1   69 1    
     5    2    3 2    
     6    2    4 am   BACKBONE|DICT|INTERRES
     7    4    5 1    
     8    4   70 1    
     9    5    6 1    
    10    5   65 1    
    11    5   71 1    
    12    6    7 1    
    13    6   72 1    
    14    6   73 1    
    15    7    8 1    
    16    8    9 1    
    17    8   74 1    
    18    8   75 1    
    19    9   10 ar   
    20    9   14 ar   
    21   10   11 ar   
    22   10   76 1    
    23   11   12 ar   
    24   11   48 1    
    25   12   13 ar   
    26   12   77 1    
    27   13   14 ar   
    28   13   15 1    
    29   14   78 1    
    30   15   16 1    
    31   15   79 1    
    32   15   80 1    
    33   16   17 1    
    34   17   18 1    
    35   17   81 1    
    36   17   82 1    
    37   18   19 1    
    38   18   22 1    
    39   18   83 1    
    40   19   20 am   BACKBONE|DICT|INTERRES
    41   19   21 2    
    42   20   84 1    
    43   20   85 1    
    44   22   23 am   BACKBONE|DICT|INTERRES
    45   22   86 1    
    46   23   24 2    
    47   23   25 1    
    48   25   26 1    
    49   25   27 1    
    50   25   87 1    
    51   26   88 1    
    52   26   89 1    
    53   26   90 1    
    54   27   28 am   BACKBONE|DICT|INTERRES
    55   27   91 1    
    56   28   29 2    
    57   28   30 1    
    58   30   31 1    
    59   30   32 1    
    60   30   92 1    
    61   31   93 1    
    62   31   94 1    
    63   31   95 1    
    64   32   33 am   BACKBONE|DICT|INTERRES
    65   32   96 1    
    66   33   34 2    
    67   33   35 1    
    68   35   36 1    
    69   35   37 1    
    70   35   97 1    
    71   36   98 1    
    72   36   99 1    
    73   36  100 1    
    74   37   38 am   BACKBONE|DICT|INTERRES
    75   37  101 1    
    76   38   39 2    
    77   38   40 1    
    78   40   41 1    
    79   40   42 1    
    80   40  102 1    
    81   41  103 1    
    82   41  104 1    
    83   41  105 1    
    84   42   43 am   BACKBONE|DICT|INTERRES
    85   42  106 1    
    86   43   44 2    
    87   43   45 1    
    88   45   46 1    
    89   45   49 1    
    90   45  107 1    
    91   46   47 1    
    92   46  108 1    
    93   46  109 1    
    94   47   48 1    
    95   48  110 1    
    96   48  111 1    
    97   49   50 am   BACKBONE|DICT|INTERRES
    98   49  112 1    
    99   50   51 2    
   100   50   52 1    
   101   52   53 1    
   102   52   54 1    
   103   52  113 1    
   104   53  114 1    
   105   53  115 1    
   106   53  116 1    
   107   54   55 am   BACKBONE|DICT|INTERRES
   108   54  117 1    
   109   55   56 2    
   110   55   57 1    
   111   57   58 1    
   112   57   59 1    
   113   57  118 1    
   114   58  119 1    
   115   58  120 1    
   116   58  121 1    
   117   59   60 am   BACKBONE|DICT|INTERRES
   118   59  122 1    
   119   60   61 2    
   120   60   62 1    
   121   62   63 1    
   122   62   64 1    
   123   62  123 1    
   124   63  124 1    
   125   63  125 1    
   126   63  126 1    
   127   64   65 am   BACKBONE|DICT|INTERRES
   128   64  127 1    
   129   65   66 2    
@<TRIPOS>SUBSTRUCTURE
     1 UNK         1 GROUP             0       ****    0 ROOT    
