@<TRIPOS>MOLECULE
3R135
127   129    1
SMALL
USER_CHARGES


@<TRIPOS>ATOM
      1 CA        -81.4158   28.4601  -76.5999 C.3       0 UNK        -0.1998 
      2 C         -80.9668   27.6038  -75.4266 C.2       0 UNK         0.4909 
      3 O         -79.9705   26.8854  -75.5317 O.2       0 UNK        -0.5240 
      4 N         -81.6908   27.6794  -74.3019 N.am      1 UNK        -0.4739 
      5 CA        -81.4675   26.8356  -73.1230 C.3       1 UNK         0.0864 
      6 C6        -82.2524   27.3505  -71.8924 C.3       11 UNK        -0.0881 
      7 S7        -81.4197   26.9103  -70.3292 S.3       11 UNK        -0.2682 
      8 C8        -80.8204   28.5284  -69.7450 C.3       11 UNK         0.0289 
      9 C9        -79.5964   29.0121  -70.5125 C.ar      11 UNK        -0.0687 
     10 C10       -79.7350   29.8982  -71.5867 C.ar      11 UNK        -0.0823 
     11 C11       -78.6098   30.3875  -72.2597 C.ar      11 UNK        -0.0830 
     12 C12       -77.3376   29.9951  -71.8316 C.ar      11 UNK        -0.1021 
     13 C13       -77.1853   29.0931  -70.7764 C.ar      11 UNK        -0.0753 
     14 C14       -78.3177   28.6027  -70.1201 C.ar      11 UNK        -0.0933 
     15 C15       -75.7905   28.6595  -70.3578 C.3       11 UNK         0.0166 
     16 S16       -75.0769   27.5358  -71.5936 S.3       11 UNK        -0.2615 
     17 C17       -73.3397   27.4604  -71.0467 C.3       11 UNK        -0.0865 
     18 CA        -72.4499   28.5454  -71.7091 C.3       10 UNK         0.0862 
     19 C         -70.9896   28.4262  -71.1936 C.2       10 UNK         0.5551 
     20 N         -70.6056   29.2391  -70.2190 N.am      10 UNK        -0.7319 
     21 O         -70.2251   27.5700  -71.6334 O.2       10 UNK        -0.5018 
     22 N         -72.5463   28.4997  -73.1752 N.am      10 UNK        -0.4509 
     23 C         -71.9794   29.3624  -74.0299 C.2       10 UNK         0.4899 
     24 O         -71.3243   30.3465  -73.6830 O.2       10 UNK        -0.4839 
     25 CA        -72.2181   29.0832  -75.5266 C.3       9 UNK         0.0222 
     26 CB        -71.2492   29.8398  -76.4603 C.3       9 UNK        -0.1966 
     27 N         -72.2545   27.6462  -75.8218 N.am      9 UNK        -0.4218 
     28 C         -71.2444   26.7676  -75.7300 C.2       9 UNK         0.5020 
     29 O         -70.0741   27.0766  -75.5044 O.2       9 UNK        -0.5274 
     30 CA        -71.5976   25.2822  -75.8972 C.3       8 UNK         0.0270 
     31 CB        -71.8852   24.6498  -74.5234 C.3       8 UNK        -0.1976 
     32 N         -72.7576   25.0793  -76.7724 N.am      8 UNK        -0.4313 
     33 C         -72.7028   24.5081  -77.9823 C.2       8 UNK         0.5041 
     34 O         -71.6616   24.1117  -78.5086 O.2       8 UNK        -0.5577 
     35 CA        -74.0302   24.3187  -78.7344 C.3       7 UNK         0.0284 
     36 CB        -74.7347   23.0309  -78.2764 C.3       7 UNK        -0.1958 
     37 N         -74.9547   25.4490  -78.6206 N.am      7 UNK        -0.4454 
     38 C         -74.7911   26.6233  -79.2475 C.2       7 UNK         0.5089 
     39 O         -73.7850   26.9243  -79.8898 O.2       7 UNK        -0.5125 
     40 CA        -75.9584   27.6193  -79.1716 C.3       6 UNK         0.0408 
     41 CB        -77.0900   27.1973  -80.1233 C.3       6 UNK        -0.1791 
     42 N         -76.4828   27.7156  -77.8116 N.am      6 UNK        -0.4762 
     43 C         -76.1378   28.6629  -76.9276 C.2       6 UNK         0.5007 
     44 O         -75.4001   29.6108  -77.1961 O.2       6 UNK        -0.5032 
     45 CA        -76.6875   28.5096  -75.4913 C.3       5 UNK         0.0783 
     46 C46       -77.9674   29.3578  -75.2869 C.3       11 UNK        -0.0857 
     47 S47       -77.6125   31.0824  -74.8125 S.3       11 UNK        -0.2512 
     48 C48       -78.7867   31.3486  -73.4347 C.3       11 UNK         0.0225 
     49 N         -76.8989   27.1018  -75.1262 N.am      5 UNK        -0.4615 
     50 C         -75.9046   26.2098  -75.0083 C.2       4 UNK         0.5053 
     51 O         -74.7201   26.4913  -75.1892 O.2       4 UNK        -0.5105 
     52 CA        -76.2612   24.7494  -74.6929 C.3       4 UNK         0.0263 
     53 CB        -76.1718   24.4883  -73.1827 C.3       4 UNK        -0.1981 
     54 N         -77.5667   24.3022  -75.1759 N.am      4 UNK        -0.4224 
     55 C         -78.0329   24.3508  -76.4301 C.2       3 UNK         0.4895 
     56 O         -77.4193   24.8760  -77.3610 O.2       3 UNK        -0.5091 
     57 CA        -79.4177   23.7258  -76.7023 C.3       3 UNK         0.0250 
     58 CB        -79.2777   22.4068  -77.4862 C.3       3 UNK        -0.1996 
     59 N         -80.2762   23.5592  -75.5148 N.am      3 UNK        -0.4254 
     60 C         -80.1050   22.7724  -74.4399 C.2       2 UNK         0.5004 
     61 O         -79.1719   21.9786  -74.3193 O.2       2 UNK        -0.5226 
     62 CA        -81.0700   23.0060  -73.2595 C.3       2 UNK         0.0269 
     63 CB        -80.7212   22.1523  -72.0256 C.3       2 UNK        -0.1926 
     64 N         -81.0527   24.4219  -72.8759 N.am      2 UNK        -0.4687 
     65 C         -81.8064   25.3653  -73.4517 C.2       1 UNK         0.5165 
     66 O         -82.7070   25.1067  -74.2554 O.2       1 UNK        -0.5079 
     67 H67       -81.0897   28.0166  -77.5404 H         1 UNK         0.0900 
     68 H68       -80.9896   29.4599  -76.5263 H         1 UNK         0.0900 
     69 H69       -82.5015   28.5501  -76.6296 H         1 UNK         0.0900 
     70 H70       -82.5153   28.2620  -74.2810 H         1 UNK         0.2959 
     71 H71       -80.3979   26.8974  -72.9052 H         1 UNK         0.1079 
     72 H72       -82.3566   28.4350  -71.9347 H         1 UNK         0.0837 
     73 H73       -83.2741   26.9652  -71.8762 H         1 UNK         0.0837 
     74 H74       -81.6253   29.2631  -69.7998 H         1 UNK         0.0685 
     75 H75       -80.5703   28.4412  -68.6866 H         1 UNK         0.0685 
     76 H76       -80.7220   30.2157  -71.8935 H         1 UNK         0.1434 
     77 H77       -76.4571   30.3731  -72.3327 H         1 UNK         0.1329 
     78 H78       -78.2057   27.9111  -69.2962 H         1 UNK         0.1335 
     79 H79       -75.1553   29.5402  -70.2519 H         1 UNK         0.0680 
     80 H80       -75.8091   28.1653  -69.3852 H         1 UNK         0.0680 
     81 H81       -72.9601   26.4640  -71.2822 H         1 UNK         0.1032 
     82 H82       -73.3053   27.5442  -69.9586 H         1 UNK         0.1032 
     83 H83       -72.8352   29.5215  -71.4075 H         1 UNK         0.0461 
     84 H84       -69.6668   29.1632  -69.8594 H         1 UNK         0.3453 
     85 H85       -71.2288   29.9383  -69.8459 H         1 UNK         0.3453 
     86 H86       -73.0822   27.7316  -73.5525 H         1 UNK         0.2984 
     87 H87       -73.2209   29.4545  -75.7351 H         1 UNK         0.0554 
     88 H88       -71.4492   29.6115  -77.5072 H         1 UNK         0.0847 
     89 H89       -70.2072   29.5945  -76.2541 H         1 UNK         0.0847 
     90 H90       -71.3561   30.9183  -76.3388 H         1 UNK         0.0847 
     91 H91       -73.1897   27.2595  -75.9133 H         1 UNK         0.3141 
     92 H92       -70.7158   24.7886  -76.3111 H         1 UNK         0.0743 
     93 H93       -72.7463   25.1053  -74.0338 H         1 UNK         0.0784 
     94 H94       -72.0787   23.5809  -74.6134 H         1 UNK         0.0784 
     95 H95       -71.0321   24.7694  -73.8537 H         1 UNK         0.0784 
     96 H96       -73.6511   25.4036  -76.4185 H         1 UNK         0.3213 
     97 H97       -73.7856   24.2000  -79.7926 H         1 UNK         0.0855 
     98 H98       -75.0248   23.0758  -77.2272 H         1 UNK         0.0814 
     99 H99       -74.0817   22.1654  -78.3966 H         1 UNK         0.0814 
    100 H100      -75.6343   22.8411  -78.8624 H         1 UNK         0.0814 
    101 H101      -75.8366   25.2707  -78.1427 H         1 UNK         0.3105 
    102 H102      -75.5920   28.5931  -79.5036 H         1 UNK         0.0547 
    103 H103      -76.7268   27.1152  -81.1485 H         1 UNK         0.0837 
    104 H104      -77.5155   26.2309  -79.8494 H         1 UNK         0.0837 
    105 H105      -77.8979   27.9288  -80.1241 H         1 UNK         0.0837 
    106 H106      -77.0613   26.9452  -77.4941 H         1 UNK         0.3020 
    107 H107      -75.9148   28.8836  -74.8147 H         1 UNK         0.1245 
    108 H108      -78.5703   28.9157  -74.4944 H         1 UNK         0.0781 
    109 H109      -78.5980   29.3556  -76.1770 H         1 UNK         0.0781 
    110 H110      -79.7999   31.2776  -73.8337 H         1 UNK         0.0836 
    111 H111      -78.6701   32.3694  -73.0689 H         1 UNK         0.0836 
    112 H112      -77.8611   26.7963  -75.0308 H         1 UNK         0.3022 
    113 H113      -75.5123   24.1257  -75.1824 H         1 UNK         0.0747 
    114 H114      -76.3472   23.4382  -72.9478 H         1 UNK         0.0793 
    115 H115      -75.1811   24.7406  -72.8022 H         1 UNK         0.0793 
    116 H116      -76.8974   25.0840  -72.6270 H         1 UNK         0.0793 
    117 H117      -78.1265   23.7757  -74.5179 H         1 UNK         0.3047 
    118 H118      -79.9415   24.4375  -77.3426 H         1 UNK         0.0822 
    119 H119      -80.2524   21.9926  -77.7436 H         1 UNK         0.0807 
    120 H120      -78.7295   21.6521  -76.9217 H         1 UNK         0.0807 
    121 H121      -78.7364   22.5659  -78.4200 H         1 UNK         0.0807 
    122 H122      -81.0531   24.2085  -75.4701 H         1 UNK         0.2946 
    123 H123      -82.0697   22.7177  -73.5937 H         1 UNK         0.1144 
    124 H124      -80.7477   21.0886  -72.2663 H         1 UNK         0.0793 
    125 H125      -81.4328   22.3175  -71.2165 H         1 UNK         0.0793 
    126 H126      -79.7237   22.3765  -71.6454 H         1 UNK         0.0793 
    127 H127      -80.3390   24.7025  -72.2177 H         1 UNK         0.2896 
@<TRIPOS>BOND
     1    1    2 1    
     2    1   67 1    
     3    1   68 1    
     4    1   69 1    
     5    2    3 2    
     6    2    4 am   BACKBONE|DICT|INTERRES
     7    4    5 1    
     8    4   70 1    
     9    5    6 1    
    10    5   65 1    
    11    5   71 1    
    12    6    7 1    
    13    6   72 1    
    14    6   73 1    
    15    7    8 1    
    16    8    9 1    
    17    8   74 1    
    18    8   75 1    
    19    9   10 ar   
    20    9   14 ar   
    21   10   11 ar   
    22   10   76 1    
    23   11   12 ar   
    24   11   48 1    
    25   12   13 ar   
    26   12   77 1    
    27   13   14 ar   
    28   13   15 1    
    29   14   78 1    
    30   15   16 1    
    31   15   79 1    
    32   15   80 1    
    33   16   17 1    
    34   17   18 1    
    35   17   81 1    
    36   17   82 1    
    37   18   19 1    
    38   18   22 1    
    39   18   83 1    
    40   19   20 am   BACKBONE|DICT|INTERRES
    41   19   21 2    
    42   20   84 1    
    43   20   85 1    
    44   22   23 am   BACKBONE|DICT|INTERRES
    45   22   86 1    
    46   23   24 2    
    47   23   25 1    
    48   25   26 1    
    49   25   27 1    
    50   25   87 1    
    51   26   88 1    
    52   26   89 1    
    53   26   90 1    
    54   27   28 am   BACKBONE|DICT|INTERRES
    55   27   91 1    
    56   28   29 2    
    57   28   30 1    
    58   30   31 1    
    59   30   32 1    
    60   30   92 1    
    61   31   93 1    
    62   31   94 1    
    63   31   95 1    
    64   32   33 am   BACKBONE|DICT|INTERRES
    65   32   96 1    
    66   33   34 2    
    67   33   35 1    
    68   35   36 1    
    69   35   37 1    
    70   35   97 1    
    71   36   98 1    
    72   36   99 1    
    73   36  100 1    
    74   37   38 am   BACKBONE|DICT|INTERRES
    75   37  101 1    
    76   38   39 2    
    77   38   40 1    
    78   40   41 1    
    79   40   42 1    
    80   40  102 1    
    81   41  103 1    
    82   41  104 1    
    83   41  105 1    
    84   42   43 am   BACKBONE|DICT|INTERRES
    85   42  106 1    
    86   43   44 2    
    87   43   45 1    
    88   45   46 1    
    89   45   49 1    
    90   45  107 1    
    91   46   47 1    
    92   46  108 1    
    93   46  109 1    
    94   47   48 1    
    95   48  110 1    
    96   48  111 1    
    97   49   50 am   BACKBONE|DICT|INTERRES
    98   49  112 1    
    99   50   51 2    
   100   50   52 1    
   101   52   53 1    
   102   52   54 1    
   103   52  113 1    
   104   53  114 1    
   105   53  115 1    
   106   53  116 1    
   107   54   55 am   BACKBONE|DICT|INTERRES
   108   54  117 1    
   109   55   56 2    
   110   55   57 1    
   111   57   58 1    
   112   57   59 1    
   113   57  118 1    
   114   58  119 1    
   115   58  120 1    
   116   58  121 1    
   117   59   60 am   BACKBONE|DICT|INTERRES
   118   59  122 1    
   119   60   61 2    
   120   60   62 1    
   121   62   63 1    
   122   62   64 1    
   123   62  123 1    
   124   63  124 1    
   125   63  125 1    
   126   63  126 1    
   127   64   65 am   BACKBONE|DICT|INTERRES
   128   64  127 1    
   129   65   66 2    
@<TRIPOS>SUBSTRUCTURE
     1 UNK         1 GROUP             0       ****    0 ROOT    
