@<TRIPOS>MOLECULE
3R135
127   129    1
SMALL
USER_CHARGES


@<TRIPOS>ATOM
      1 CA        -80.0850   28.8144  -77.2872 C.3       0 UNK        -0.1998 
      2 C         -80.1910   27.9646  -76.0308 C.2       0 UNK         0.4909 
      3 O         -79.7368   26.8207  -76.0341 O.2       0 UNK        -0.5240 
      4 N         -80.7806   28.5187  -74.9606 N.am      1 UNK        -0.4739 
      5 CA        -80.9652   27.8906  -73.6447 C.3       1 UNK         0.0864 
      6 C6        -81.6933   28.8252  -72.6485 C.3       11 UNK        -0.0881 
      7 S7        -80.8109   30.4018  -72.3699 S.3       11 UNK        -0.2682 
      8 C8        -80.2379   30.2415  -70.6463 C.3       11 UNK         0.0289 
      9 C9        -78.8286   29.6708  -70.5601 C.ar      11 UNK        -0.0687 
     10 C10       -78.6128   28.2939  -70.6678 C.ar      11 UNK        -0.0823 
     11 C11       -77.3182   27.7687  -70.5869 C.ar      11 UNK        -0.0830 
     12 C12       -76.2446   28.6307  -70.3466 C.ar      11 UNK        -0.1021 
     13 C13       -76.4439   30.0093  -70.2174 C.ar      11 UNK        -0.0753 
     14 C14       -77.7397   30.5216  -70.3393 C.ar      11 UNK        -0.0933 
     15 C15       -75.2890   30.9471  -69.8685 C.3       11 UNK         0.0166 
     16 S16       -73.7125   30.5560  -70.7033 S.3       11 UNK        -0.2615 
     17 C17       -73.9925   31.2054  -72.3865 C.3       11 UNK        -0.0865 
     18 CA        -74.1482   30.1183  -73.4908 C.3       10 UNK         0.0862 
     19 C         -74.4369   30.7754  -74.8756 C.2       10 UNK         0.5551 
     20 N         -73.8476   30.3275  -75.9780 N.am      10 UNK        -0.7319 
     21 O         -75.2093   31.7280  -74.9569 O.2       10 UNK        -0.5018 
     22 N         -73.0027   29.1897  -73.5241 N.am      10 UNK        -0.4509 
     23 C         -72.9970   27.9379  -73.0451 C.2       10 UNK         0.4899 
     24 O         -73.9620   27.3987  -72.5029 O.2       10 UNK        -0.4839 
     25 CA        -71.6855   27.1509  -73.2087 C.3       9 UNK         0.0222 
     26 CB        -71.8497   25.6421  -72.9282 C.3       9 UNK        -0.1966 
     27 N         -71.1564   27.3551  -74.5534 N.am      9 UNK        -0.4218 
     28 C         -69.8879   27.2311  -74.9531 C.2       9 UNK         0.5020 
     29 O         -68.9609   26.9359  -74.1962 O.2       9 UNK        -0.5274 
     30 CA        -69.6211   27.4666  -76.4597 C.3       8 UNK         0.0270 
     31 CB        -68.1638   27.1638  -76.8577 C.3       8 UNK        -0.1976 
     32 N         -70.5213   26.7009  -77.3354 N.am      8 UNK        -0.4313 
     33 C         -71.8277   26.9400  -77.5129 C.2       8 UNK         0.5041 
     34 O         -72.4044   27.8812  -76.9594 O.2       8 UNK        -0.5577 
     35 CA        -72.6096   25.9505  -78.4053 C.3       7 UNK         0.0284 
     36 CB        -72.2210   24.4844  -78.1298 C.3       7 UNK        -0.1958 
     37 N         -74.0524   26.0837  -78.2008 N.am      7 UNK        -0.4454 
     38 C         -74.8309   27.0390  -78.7264 C.2       7 UNK         0.5089 
     39 O         -74.4569   27.8217  -79.6017 O.2       7 UNK        -0.5125 
     40 CA        -76.2754   27.1431  -78.1927 C.3       6 UNK         0.0408 
     41 CB        -77.2817   26.6943  -79.2638 C.3       6 UNK        -0.1791 
     42 N         -76.5179   26.3852  -76.9584 N.am      6 UNK        -0.4762 
     43 C         -75.9899   26.6802  -75.7582 C.2       6 UNK         0.5007 
     44 O         -75.2545   27.6432  -75.5716 O.2       6 UNK        -0.5032 
     45 CA        -76.3300   25.7699  -74.5591 C.3       5 UNK         0.0783 
     46 C46       -77.2316   26.5446  -73.5698 C.3       11 UNK        -0.0857 
     47 S47       -77.8890   25.5399  -72.1931 S.3       11 UNK        -0.2512 
     48 C48       -77.0588   26.2730  -70.7441 C.3       11 UNK         0.0225 
     49 N         -76.9172   24.4920  -74.9677 N.am      5 UNK        -0.4615 
     50 C         -76.2661   23.5010  -75.5893 C.2       4 UNK         0.5053 
     51 O         -75.0731   23.5505  -75.8890 O.2       4 UNK        -0.5105 
     52 CA        -77.0973   22.2603  -75.9651 C.3       4 UNK         0.0263 
     53 CB        -76.9334   21.1636  -74.9013 C.3       4 UNK        -0.1981 
     54 N         -78.5243   22.5550  -76.1354 N.am      4 UNK        -0.4224 
     55 C         -79.0415   23.3374  -77.0912 C.2       3 UNK         0.4895 
     56 O         -78.3682   23.8473  -77.9859 O.2       3 UNK        -0.5091 
     57 CA        -80.5463   23.6437  -77.0160 C.3       3 UNK         0.0250 
     58 CB        -81.3893   22.4844  -77.5821 C.3       3 UNK        -0.1996 
     59 N         -81.0044   24.0631  -75.6824 N.am      3 UNK        -0.4254 
     60 C         -81.1022   23.3492  -74.5507 C.2       2 UNK         0.5004 
     61 O         -80.7916   22.1590  -74.4746 O.2       2 UNK        -0.5226 
     62 CA        -81.5838   24.0946  -73.2875 C.3       2 UNK         0.0269 
     63 CB        -81.1698   23.3713  -71.9917 C.3       2 UNK        -0.1926 
     64 N         -81.0848   25.4723  -73.2324 N.am      2 UNK        -0.4687 
     65 C         -81.7031   26.5396  -73.7530 C.2       1 UNK         0.5165 
     66 O         -82.7966   26.4857  -74.3195 O.2       1 UNK        -0.5079 
     67 H67       -80.5644   28.3068  -78.1237 H         1 UNK         0.0900 
     68 H68       -80.5582   29.7882  -77.1631 H         1 UNK         0.0900 
     69 H69       -79.0373   28.9744  -77.5403 H         1 UNK         0.0900 
     70 H70       -81.1333   29.4625  -75.0299 H         1 UNK         0.2959 
     71 H71       -79.9708   27.7050  -73.2425 H         1 UNK         0.1079 
     72 H72       -82.6932   29.0639  -73.0167 H         1 UNK         0.0837 
     73 H73       -81.8440   28.3199  -71.6929 H         1 UNK         0.0837 
     74 H74       -80.2640   31.2313  -70.1881 H         1 UNK         0.0685 
     75 H75       -80.9287   29.6311  -70.0634 H         1 UNK         0.0685 
     76 H76       -79.4517   27.6309  -70.8237 H         1 UNK         0.1434 
     77 H77       -75.2467   28.2242  -70.2552 H         1 UNK         0.1329 
     78 H78       -77.9065   31.5851  -70.2346 H         1 UNK         0.1335 
     79 H79       -75.5539   31.9849  -70.0765 H         1 UNK         0.0680 
     80 H80       -75.1246   30.8870  -68.7921 H         1 UNK         0.0680 
     81 H81       -74.8736   31.8494  -72.3662 H         1 UNK         0.1032 
     82 H82       -73.1546   31.8615  -72.6284 H         1 UNK         0.1032 
     83 H83       -75.0532   29.5511  -73.2651 H         1 UNK         0.0461 
     84 H84       -73.3471   29.4464  -75.9894 H         1 UNK         0.3453 
     85 H85       -74.0557   30.7805  -76.8522 H         1 UNK         0.3453 
     86 H86       -72.1685   29.5479  -73.9655 H         1 UNK         0.2984 
     87 H87       -70.9793   27.5646  -72.4862 H         1 UNK         0.0554 
     88 H88       -70.9003   25.1136  -73.0139 H         1 UNK         0.0847 
     89 H89       -72.5543   25.1814  -73.6217 H         1 UNK         0.0847 
     90 H90       -72.2227   25.4691  -71.9179 H         1 UNK         0.0847 
     91 H91       -71.8385   27.5935  -75.2749 H         1 UNK         0.3141 
     92 H92       -69.7963   28.5289  -76.6436 H         1 UNK         0.0743 
     93 H93       -67.4650   27.7644  -76.2735 H         1 UNK         0.0784 
     94 H94       -67.9101   26.1158  -76.6934 H         1 UNK         0.0784 
     95 H95       -67.9822   27.3939  -77.9077 H         1 UNK         0.0784 
     96 H96       -70.1175   25.8953  -77.7910 H         1 UNK         0.3213 
     97 H97       -72.3757   26.1860  -79.4457 H         1 UNK         0.0855 
     98 H98       -72.3401   24.2270  -77.0760 H         1 UNK         0.0814 
     99 H99       -71.1865   24.2803  -78.4069 H         1 UNK         0.0814 
    100 H100      -72.8400   23.7977  -78.7079 H         1 UNK         0.0814 
    101 H101      -74.4554   25.5123  -77.4711 H         1 UNK         0.3105 
    102 H102      -76.4620   28.1964  -77.9733 H         1 UNK         0.0547 
    103 H103      -78.3084   26.7730  -78.9058 H         1 UNK         0.0837 
    104 H104      -77.2009   27.3121  -80.1590 H         1 UNK         0.0837 
    105 H105      -77.1111   25.6604  -79.5660 H         1 UNK         0.0837 
    106 H106      -77.1356   25.5860  -77.0337 H         1 UNK         0.3020 
    107 H107      -75.3869   25.5516  -74.0523 H         1 UNK         0.1245 
    108 H108      -78.0812   26.9678  -74.0990 H         1 UNK         0.0781 
    109 H109      -76.6832   27.3998  -73.1709 H         1 UNK         0.0781 
    110 H110      -75.9888   26.0747  -70.8296 H         1 UNK         0.0836 
    111 H111      -77.3982   25.7590  -69.8441 H         1 UNK         0.0836 
    112 H112      -77.8968   24.3705  -74.7602 H         1 UNK         0.3022 
    113 H113      -76.7144   21.8829  -76.9155 H         1 UNK         0.0747 
    114 H114      -77.4551   20.2507  -75.1892 H         1 UNK         0.0793 
    115 H115      -75.8821   20.9060  -74.7646 H         1 UNK         0.0793 
    116 H116      -77.3214   21.4808  -73.9322 H         1 UNK         0.0793 
    117 H117      -79.1697   22.1853  -75.4407 H         1 UNK         0.3047 
    118 H118      -80.7138   24.5097  -77.6590 H         1 UNK         0.0822 
    119 H119      -81.1029   22.2651  -78.6115 H         1 UNK         0.0807 
    120 H120      -82.4506   22.7328  -77.5874 H         1 UNK         0.0807 
    121 H121      -81.2630   21.5647  -77.0104 H         1 UNK         0.0807 
    122 H122      -81.2005   25.0542  -75.6103 H         1 UNK         0.2946 
    123 H123      -82.6756   24.1044  -73.3281 H         1 UNK         0.1144 
    124 H124      -81.5213   23.9056  -71.1089 H         1 UNK         0.0793 
    125 H125      -80.0865   23.2707  -71.9139 H         1 UNK         0.0793 
    126 H126      -81.5946   22.3675  -71.9487 H         1 UNK         0.0793 
    127 H127      -80.1666   25.5882  -72.8221 H         1 UNK         0.2896 
@<TRIPOS>BOND
     1    1    2 1    
     2    1   67 1    
     3    1   68 1    
     4    1   69 1    
     5    2    3 2    
     6    2    4 am   BACKBONE|DICT|INTERRES
     7    4    5 1    
     8    4   70 1    
     9    5    6 1    
    10    5   65 1    
    11    5   71 1    
    12    6    7 1    
    13    6   72 1    
    14    6   73 1    
    15    7    8 1    
    16    8    9 1    
    17    8   74 1    
    18    8   75 1    
    19    9   10 ar   
    20    9   14 ar   
    21   10   11 ar   
    22   10   76 1    
    23   11   12 ar   
    24   11   48 1    
    25   12   13 ar   
    26   12   77 1    
    27   13   14 ar   
    28   13   15 1    
    29   14   78 1    
    30   15   16 1    
    31   15   79 1    
    32   15   80 1    
    33   16   17 1    
    34   17   18 1    
    35   17   81 1    
    36   17   82 1    
    37   18   19 1    
    38   18   22 1    
    39   18   83 1    
    40   19   20 am   BACKBONE|DICT|INTERRES
    41   19   21 2    
    42   20   84 1    
    43   20   85 1    
    44   22   23 am   BACKBONE|DICT|INTERRES
    45   22   86 1    
    46   23   24 2    
    47   23   25 1    
    48   25   26 1    
    49   25   27 1    
    50   25   87 1    
    51   26   88 1    
    52   26   89 1    
    53   26   90 1    
    54   27   28 am   BACKBONE|DICT|INTERRES
    55   27   91 1    
    56   28   29 2    
    57   28   30 1    
    58   30   31 1    
    59   30   32 1    
    60   30   92 1    
    61   31   93 1    
    62   31   94 1    
    63   31   95 1    
    64   32   33 am   BACKBONE|DICT|INTERRES
    65   32   96 1    
    66   33   34 2    
    67   33   35 1    
    68   35   36 1    
    69   35   37 1    
    70   35   97 1    
    71   36   98 1    
    72   36   99 1    
    73   36  100 1    
    74   37   38 am   BACKBONE|DICT|INTERRES
    75   37  101 1    
    76   38   39 2    
    77   38   40 1    
    78   40   41 1    
    79   40   42 1    
    80   40  102 1    
    81   41  103 1    
    82   41  104 1    
    83   41  105 1    
    84   42   43 am   BACKBONE|DICT|INTERRES
    85   42  106 1    
    86   43   44 2    
    87   43   45 1    
    88   45   46 1    
    89   45   49 1    
    90   45  107 1    
    91   46   47 1    
    92   46  108 1    
    93   46  109 1    
    94   47   48 1    
    95   48  110 1    
    96   48  111 1    
    97   49   50 am   BACKBONE|DICT|INTERRES
    98   49  112 1    
    99   50   51 2    
   100   50   52 1    
   101   52   53 1    
   102   52   54 1    
   103   52  113 1    
   104   53  114 1    
   105   53  115 1    
   106   53  116 1    
   107   54   55 am   BACKBONE|DICT|INTERRES
   108   54  117 1    
   109   55   56 2    
   110   55   57 1    
   111   57   58 1    
   112   57   59 1    
   113   57  118 1    
   114   58  119 1    
   115   58  120 1    
   116   58  121 1    
   117   59   60 am   BACKBONE|DICT|INTERRES
   118   59  122 1    
   119   60   61 2    
   120   60   62 1    
   121   62   63 1    
   122   62   64 1    
   123   62  123 1    
   124   63  124 1    
   125   63  125 1    
   126   63  126 1    
   127   64   65 am   BACKBONE|DICT|INTERRES
   128   64  127 1    
   129   65   66 2    
@<TRIPOS>SUBSTRUCTURE
     1 UNK         1 GROUP             0       ****    0 ROOT    
