@<TRIPOS>MOLECULE
3R135
127   129    1
SMALL
USER_CHARGES


@<TRIPOS>ATOM
      1 CA        -85.5597   26.1612  -75.2788 C.3       0 UNK        -0.1998 
      2 C         -84.4975   27.2461  -75.3761 C.2       0 UNK         0.4909 
      3 O         -84.8026   28.3671  -75.7841 O.2       0 UNK        -0.5240 
      4 N         -83.2543   26.9209  -75.0066 N.am      1 UNK        -0.4739 
      5 CA        -82.1046   27.8230  -75.0445 C.3       1 UNK         0.0864 
      6 C6        -81.9631   28.6391  -73.7344 C.3       11 UNK        -0.0881 
      7 S7        -80.8542   30.0772  -73.9208 S.3       11 UNK        -0.2682 
      8 C8        -80.4960   30.4741  -72.1809 C.3       11 UNK         0.0289 
      9 C9        -79.1887   29.8573  -71.6994 C.ar      11 UNK        -0.0687 
     10 C10       -79.1356   28.5172  -71.3048 C.ar      11 UNK        -0.0823 
     11 C11       -77.9490   27.9656  -70.8123 C.ar      11 UNK        -0.0830 
     12 C12       -76.8098   28.7681  -70.7030 C.ar      11 UNK        -0.1021 
     13 C13       -76.8462   30.1076  -71.1020 C.ar      11 UNK        -0.0753 
     14 C14       -78.0355   30.6431  -71.6070 C.ar      11 UNK        -0.0933 
     15 C15       -75.6155   30.9909  -70.9546 C.3       11 UNK         0.0166 
     16 S16       -74.4662   30.7934  -72.3504 S.3       11 UNK        -0.2615 
     17 C17       -73.5557   29.2870  -71.8620 C.3       11 UNK        -0.0865 
     18 CA        -72.1518   29.1993  -72.5195 C.3       10 UNK         0.0862 
     19 C         -71.3174   28.0024  -71.9748 C.2       10 UNK         0.5551 
     20 N         -70.5843   27.2650  -72.8022 N.am      10 UNK        -0.7319 
     21 O         -71.3176   27.7457  -70.7733 O.2       10 UNK        -0.5018 
     22 N         -72.2485   29.1928  -73.9858 N.am      10 UNK        -0.4509 
     23 C         -71.6001   30.0212  -74.8113 C.2       10 UNK         0.4899 
     24 O         -70.8694   30.9375  -74.4302 O.2       10 UNK        -0.4839 
     25 CA        -71.8044   29.7845  -76.3213 C.3       9 UNK         0.0222 
     26 CB        -70.6912   30.4194  -77.1820 C.3       9 UNK        -0.1966 
     27 N         -71.9902   28.3727  -76.6809 N.am      9 UNK        -0.4218 
     28 C         -71.1397   27.3550  -76.4682 C.2       9 UNK         0.5020 
     29 O         -70.0659   27.4855  -75.8775 O.2       9 UNK        -0.5274 
     30 CA        -71.5513   25.9528  -76.9672 C.3       8 UNK         0.0270 
     31 CB        -71.1621   24.8607  -75.9537 C.3       8 UNK        -0.1976 
     32 N         -72.9847   25.8416  -77.2452 N.am      8 UNK        -0.4313 
     33 C         -73.5957   26.1987  -78.3827 C.2       8 UNK         0.5041 
     34 O         -73.0007   26.5932  -79.3852 O.2       8 UNK        -0.5577 
     35 CA        -75.1354   26.1828  -78.3709 C.3       7 UNK         0.0284 
     36 CB        -75.6724   24.7850  -78.7175 C.3       7 UNK        -0.1958 
     37 N         -75.6815   26.6268  -77.0831 N.am      7 UNK        -0.4454 
     38 C         -75.5672   27.8744  -76.6001 C.2       7 UNK         0.5089 
     39 O         -75.0580   28.8024  -77.2273 O.2       7 UNK        -0.5125 
     40 CA        -76.0529   28.1208  -75.1602 C.3       6 UNK         0.0408 
     41 CB        -77.4540   28.7441  -75.1539 C.3       6 UNK        -0.1791 
     42 N         -76.0378   26.9084  -74.3341 N.am      6 UNK        -0.4762 
     43 C         -74.9093   26.3158  -73.9213 C.2       6 UNK         0.5007 
     44 O         -73.7861   26.7250  -74.2186 O.2       6 UNK        -0.5032 
     45 CA        -75.0507   25.0384  -73.0725 C.3       5 UNK         0.0783 
     46 C46       -75.7308   25.2977  -71.7021 C.3       11 UNK        -0.0857 
     47 S47       -77.5566   25.3987  -71.7664 S.3       11 UNK        -0.2512 
     48 C48       -77.9178   26.5101  -70.3729 C.3       11 UNK         0.0225 
     49 N         -75.6648   23.9256  -73.8048 N.am      5 UNK        -0.4615 
     50 C         -75.2308   23.3922  -74.9524 C.2       4 UNK         0.5053 
     51 O         -74.2632   23.8214  -75.5768 O.2       4 UNK        -0.5105 
     52 CA        -76.0075   22.1925  -75.5255 C.3       4 UNK         0.0263 
     53 CB        -75.5677   20.8741  -74.8601 C.3       4 UNK        -0.1981 
     54 N         -77.4674   22.3584  -75.5115 N.am      4 UNK        -0.4224 
     55 C         -78.3050   22.4081  -74.4667 C.2       3 UNK         0.4895 
     56 O         -77.9506   22.2572  -73.2967 O.2       3 UNK        -0.5091 
     57 CA        -79.7714   22.7465  -74.7953 C.3       3 UNK         0.0250 
     58 CB        -80.6669   22.7811  -73.5426 C.3       3 UNK        -0.1996 
     59 N         -79.8685   24.0407  -75.4736 N.am      3 UNK        -0.4254 
     60 C         -79.6220   24.2794  -76.7668 C.2       2 UNK         0.5004 
     61 O         -79.2957   23.3907  -77.5559 O.2       2 UNK        -0.5226 
     62 CA        -79.7137   25.7446  -77.2502 C.3       2 UNK         0.0269 
     63 CB        -79.8205   25.8505  -78.7834 C.3       2 UNK        -0.1926 
     64 N         -80.8090   26.5222  -76.6543 N.am      2 UNK        -0.4687 
     65 C         -80.8718   26.9763  -75.3950 C.2       1 UNK         0.5165 
     66 O         -80.0419   26.6883  -74.5315 O.2       1 UNK        -0.5079 
     67 H67       -86.3515   26.4719  -74.5977 H         1 UNK         0.0900 
     68 H68       -86.0032   25.9815  -76.2579 H         1 UNK         0.0900 
     69 H69       -85.1496   25.2193  -74.9146 H         1 UNK         0.0900 
     70 H70       -83.0532   25.9800  -74.6950 H         1 UNK         0.2959 
     71 H71       -82.2397   28.5294  -75.8674 H         1 UNK         0.1079 
     72 H72       -82.9378   29.0292  -73.4370 H         1 UNK         0.0837 
     73 H73       -81.6366   28.0029  -72.9119 H         1 UNK         0.0837 
     74 H74       -80.4539   31.5597  -72.0801 H         1 UNK         0.0685 
     75 H75       -81.3196   30.1488  -71.5434 H         1 UNK         0.0685 
     76 H76       -80.0192   27.8995  -71.3714 H         1 UNK         0.1434 
     77 H77       -75.8967   28.3535  -70.3004 H         1 UNK         0.1329 
     78 H78       -78.0689   31.6810  -71.9092 H         1 UNK         0.1335 
     79 H79       -75.1080   30.7801  -70.0123 H         1 UNK         0.0680 
     80 H80       -75.9150   32.0388  -70.9029 H         1 UNK         0.0680 
     81 H81       -73.4588   29.2804  -70.7750 H         1 UNK         0.1032 
     82 H82       -74.1588   28.4175  -72.1186 H         1 UNK         0.1032 
     83 H83       -71.6000   30.0842  -72.1985 H         1 UNK         0.0461 
     84 H84       -70.0449   26.5000  -72.4305 H         1 UNK         0.3453 
     85 H85       -70.5417   27.4785  -73.7909 H         1 UNK         0.3453 
     86 H86       -72.7901   28.4243  -74.3696 H         1 UNK         0.2984 
     87 H87       -72.7400   30.2839  -76.5762 H         1 UNK         0.0554 
     88 H88       -70.6388   31.4973  -77.0239 H         1 UNK         0.0847 
     89 H89       -70.8709   30.2591  -78.2450 H         1 UNK         0.0847 
     90 H90       -69.7104   30.0077  -76.9414 H         1 UNK         0.0847 
     91 H91       -72.8670   28.1634  -77.1415 H         1 UNK         0.3141 
     92 H92       -70.9976   25.7683  -77.8899 H         1 UNK         0.0743 
     93 H93       -70.0854   24.8451  -75.7800 H         1 UNK         0.0784 
     94 H94       -71.6479   25.0187  -74.9896 H         1 UNK         0.0784 
     95 H95       -71.4446   23.8700  -76.3104 H         1 UNK         0.0784 
     96 H96       -73.5487   25.4709  -76.4852 H         1 UNK         0.3213 
     97 H97       -75.4824   26.8797  -79.1372 H         1 UNK         0.0855 
     98 H98       -75.2965   24.0235  -78.0359 H         1 UNK         0.0814 
     99 H99       -75.3658   24.4939  -79.7229 H         1 UNK         0.0814 
    100 H100      -76.7607   24.7528  -78.6900 H         1 UNK         0.0814 
    101 H101      -76.0706   25.9213  -76.4764 H         1 UNK         0.3105 
    102 H102      -75.3712   28.8412  -74.7026 H         1 UNK         0.0547 
    103 H103      -77.8327   28.8675  -74.1392 H         1 UNK         0.0837 
    104 H104      -77.4406   29.7317  -75.6162 H         1 UNK         0.0837 
    105 H105      -78.1677   28.1395  -75.7090 H         1 UNK         0.0837 
    106 H106      -76.9270   26.5432  -74.0162 H         1 UNK         0.3020 
    107 H107      -74.0265   24.7233  -72.8587 H         1 UNK         0.1245 
    108 H108      -75.3231   26.1962  -71.2363 H         1 UNK         0.0781 
    109 H109      -75.4819   24.4817  -71.0220 H         1 UNK         0.0781 
    110 H110      -77.1913   26.3606  -69.5727 H         1 UNK         0.0836 
    111 H111      -78.8862   26.2349  -69.9523 H         1 UNK         0.0836 
    112 H112      -76.4825   23.5026  -73.3730 H         1 UNK         0.3022 
    113 H113      -75.7366   22.1223  -76.5799 H         1 UNK         0.0747 
    114 H114      -76.0760   20.0178  -75.3032 H         1 UNK         0.0793 
    115 H115      -74.4958   20.7162  -74.9872 H         1 UNK         0.0793 
    116 H116      -75.7684   20.8659  -73.7885 H         1 UNK         0.0793 
    117 H117      -77.8891   22.5387  -76.4189 H         1 UNK         0.3047 
    118 H118      -80.1484   21.9651  -75.4588 H         1 UNK         0.0822 
    119 H119      -80.6411   21.8258  -73.0165 H         1 UNK         0.0807 
    120 H120      -81.7067   22.9782  -73.8034 H         1 UNK         0.0807 
    121 H121      -80.3454   23.5508  -72.8391 H         1 UNK         0.0807 
    122 H122      -80.0331   24.8525  -74.8836 H         1 UNK         0.2946 
    123 H123      -78.7724   26.2124  -76.9566 H         1 UNK         0.1144 
    124 H124      -79.8072   26.8901  -79.1116 H         1 UNK         0.0793 
    125 H125      -80.7384   25.3924  -79.1538 H         1 UNK         0.0793 
    126 H126      -78.9871   25.3519  -79.2788 H         1 UNK         0.0793 
    127 H127      -81.5746   26.7473  -77.2740 H         1 UNK         0.2896 
@<TRIPOS>BOND
     1    1    2 1    
     2    1   67 1    
     3    1   68 1    
     4    1   69 1    
     5    2    3 2    
     6    2    4 am   BACKBONE|DICT|INTERRES
     7    4    5 1    
     8    4   70 1    
     9    5    6 1    
    10    5   65 1    
    11    5   71 1    
    12    6    7 1    
    13    6   72 1    
    14    6   73 1    
    15    7    8 1    
    16    8    9 1    
    17    8   74 1    
    18    8   75 1    
    19    9   10 ar   
    20    9   14 ar   
    21   10   11 ar   
    22   10   76 1    
    23   11   12 ar   
    24   11   48 1    
    25   12   13 ar   
    26   12   77 1    
    27   13   14 ar   
    28   13   15 1    
    29   14   78 1    
    30   15   16 1    
    31   15   79 1    
    32   15   80 1    
    33   16   17 1    
    34   17   18 1    
    35   17   81 1    
    36   17   82 1    
    37   18   19 1    
    38   18   22 1    
    39   18   83 1    
    40   19   20 am   BACKBONE|DICT|INTERRES
    41   19   21 2    
    42   20   84 1    
    43   20   85 1    
    44   22   23 am   BACKBONE|DICT|INTERRES
    45   22   86 1    
    46   23   24 2    
    47   23   25 1    
    48   25   26 1    
    49   25   27 1    
    50   25   87 1    
    51   26   88 1    
    52   26   89 1    
    53   26   90 1    
    54   27   28 am   BACKBONE|DICT|INTERRES
    55   27   91 1    
    56   28   29 2    
    57   28   30 1    
    58   30   31 1    
    59   30   32 1    
    60   30   92 1    
    61   31   93 1    
    62   31   94 1    
    63   31   95 1    
    64   32   33 am   BACKBONE|DICT|INTERRES
    65   32   96 1    
    66   33   34 2    
    67   33   35 1    
    68   35   36 1    
    69   35   37 1    
    70   35   97 1    
    71   36   98 1    
    72   36   99 1    
    73   36  100 1    
    74   37   38 am   BACKBONE|DICT|INTERRES
    75   37  101 1    
    76   38   39 2    
    77   38   40 1    
    78   40   41 1    
    79   40   42 1    
    80   40  102 1    
    81   41  103 1    
    82   41  104 1    
    83   41  105 1    
    84   42   43 am   BACKBONE|DICT|INTERRES
    85   42  106 1    
    86   43   44 2    
    87   43   45 1    
    88   45   46 1    
    89   45   49 1    
    90   45  107 1    
    91   46   47 1    
    92   46  108 1    
    93   46  109 1    
    94   47   48 1    
    95   48  110 1    
    96   48  111 1    
    97   49   50 am   BACKBONE|DICT|INTERRES
    98   49  112 1    
    99   50   51 2    
   100   50   52 1    
   101   52   53 1    
   102   52   54 1    
   103   52  113 1    
   104   53  114 1    
   105   53  115 1    
   106   53  116 1    
   107   54   55 am   BACKBONE|DICT|INTERRES
   108   54  117 1    
   109   55   56 2    
   110   55   57 1    
   111   57   58 1    
   112   57   59 1    
   113   57  118 1    
   114   58  119 1    
   115   58  120 1    
   116   58  121 1    
   117   59   60 am   BACKBONE|DICT|INTERRES
   118   59  122 1    
   119   60   61 2    
   120   60   62 1    
   121   62   63 1    
   122   62   64 1    
   123   62  123 1    
   124   63  124 1    
   125   63  125 1    
   126   63  126 1    
   127   64   65 am   BACKBONE|DICT|INTERRES
   128   64  127 1    
   129   65   66 2    
@<TRIPOS>SUBSTRUCTURE
     1 UNK         1 GROUP             0       ****    0 ROOT    
