@<TRIPOS>MOLECULE
3R135
127   129    1
SMALL
USER_CHARGES


@<TRIPOS>ATOM
      1 CA        -83.5251   28.9309  -75.0129 C.3       0 UNK        -0.1998 
      2 C         -82.0342   29.2528  -75.0804 C.2       0 UNK         0.4909 
      3 O         -81.6174   29.9295  -76.0185 O.2       0 UNK        -0.5240 
      4 N         -81.1850   28.8230  -74.1346 N.am      1 UNK        -0.4739 
      5 CA        -81.4345   27.9753  -72.9570 C.3       1 UNK         0.0864 
      6 C6        -82.4112   28.5719  -71.9038 C.3       11 UNK        -0.0881 
      7 S7        -81.9918   30.2741  -71.3951 S.3       11 UNK        -0.2682 
      8 C8        -81.0404   29.9927  -69.8676 C.3       11 UNK         0.0289 
      9 C9        -79.6146   29.5518  -70.1647 C.ar      11 UNK        -0.0687 
     10 C10       -79.2486   28.2048  -70.0627 C.ar      11 UNK        -0.0823 
     11 C11       -77.9382   27.8091  -70.3456 C.ar      11 UNK        -0.0830 
     12 C12       -76.9861   28.7740  -70.6748 C.ar      11 UNK        -0.1021 
     13 C13       -77.3432   30.1157  -70.8246 C.ar      11 UNK        -0.0753 
     14 C14       -78.6609   30.4990  -70.5549 C.ar      11 UNK        -0.0933 
     15 C15       -76.3194   31.1462  -71.2933 C.3       11 UNK         0.0166 
     16 S16       -75.5035   30.6643  -72.8589 S.3       11 UNK        -0.2615 
     17 C17       -74.0933   29.6666  -72.2599 C.3       11 UNK        -0.0865 
     18 CA        -72.7592   30.0653  -72.9399 C.3       10 UNK         0.0862 
     19 C         -71.5317   29.6366  -72.0771 C.2       10 UNK         0.5551 
     20 N         -70.5880   28.8450  -72.5719 N.am      10 UNK        -0.7319 
     21 O         -71.4285   30.0446  -70.9229 O.2       10 UNK        -0.5018 
     22 N         -72.7269   29.5992  -74.3350 N.am      10 UNK        -0.4509 
     23 C         -71.9238   30.0896  -75.2867 C.2       10 UNK         0.4899 
     24 O         -71.2028   31.0773  -75.1337 O.2       10 UNK        -0.4839 
     25 CA        -71.9086   29.3168  -76.6206 C.3       9 UNK         0.0222 
     26 CB        -70.7354   29.7199  -77.5382 C.3       9 UNK        -0.1966 
     27 N         -71.9384   27.8601  -76.4322 N.am      9 UNK        -0.4218 
     28 C         -71.0736   27.1081  -75.7310 C.2       9 UNK         0.5020 
     29 O         -70.0858   27.5655  -75.1552 O.2       9 UNK        -0.5274 
     30 CA        -71.3636   25.5999  -75.6016 C.3       8 UNK         0.0270 
     31 CB        -71.7890   25.2643  -74.1619 C.3       8 UNK        -0.1976 
     32 N         -72.3883   25.1131  -76.5276 N.am      8 UNK        -0.4313 
     33 C         -72.2151   24.9655  -77.8480 C.2       8 UNK         0.5041 
     34 O         -71.1376   25.1311  -78.4210 O.2       8 UNK        -0.5577 
     35 CA        -73.4645   24.6198  -78.6751 C.3       7 UNK         0.0284 
     36 CB        -73.6858   23.0994  -78.7067 C.3       7 UNK        -0.1958 
     37 N         -74.6777   25.2939  -78.1959 N.am      7 UNK        -0.4454 
     38 C         -74.8547   26.6241  -78.1773 C.2       7 UNK         0.5089 
     39 O         -74.0202   27.4289  -78.5886 O.2       7 UNK        -0.5125 
     40 CA        -76.1536   27.1559  -77.5512 C.3       6 UNK         0.0408 
     41 CB        -77.3350   27.0073  -78.5222 C.3       6 UNK        -0.1791 
     42 N         -76.4736   26.5035  -76.2828 N.am      6 UNK        -0.4762 
     43 C         -75.7485   26.5962  -75.1570 C.2       6 UNK         0.5007 
     44 O         -74.7365   27.2908  -75.0374 O.2       6 UNK        -0.5032 
     45 CA        -76.2289   25.7274  -73.9765 C.3       5 UNK         0.0783 
     46 C46       -77.3868   26.4376  -73.2319 C.3       11 UNK        -0.0857 
     47 S47       -78.1033   25.4724  -71.8500 S.3       11 UNK        -0.2512 
     48 C48       -77.5412   26.3399  -70.3445 C.3       11 UNK         0.0225 
     49 N         -76.5902   24.3787  -74.4278 N.am      5 UNK        -0.4615 
     50 C         -75.7362   23.4921  -74.9577 C.2       4 UNK         0.5053 
     51 O         -74.5342   23.7055  -75.1116 O.2       4 UNK        -0.5105 
     52 CA        -76.3323   22.1559  -75.4306 C.3       4 UNK         0.0263 
     53 CB        -76.5196   21.1974  -74.2439 C.3       4 UNK        -0.1981 
     54 N         -77.6063   22.3233  -76.1345 N.am      4 UNK        -0.4224 
     55 C         -77.7477   22.9532  -77.3104 C.2       3 UNK         0.4895 
     56 O         -76.8107   23.4202  -77.9550 O.2       3 UNK        -0.5091 
     57 CA        -79.1836   23.1445  -77.8291 C.3       3 UNK         0.0250 
     58 CB        -79.6499   21.9026  -78.6051 C.3       3 UNK        -0.1996 
     59 N         -80.1451   23.4559  -76.7655 N.am      3 UNK        -0.4254 
     60 C         -80.0605   24.5256  -75.9634 C.2       2 UNK         0.5004 
     61 O         -79.1730   25.3809  -76.0522 O.2       2 UNK        -0.5226 
     62 CA        -81.1022   24.6290  -74.8439 C.3       2 UNK         0.0269 
     63 CB        -80.8590   23.5369  -73.7798 C.3       2 UNK        -0.1926 
     64 N         -80.9842   25.9630  -74.2627 N.am      2 UNK        -0.4687 
     65 C         -81.7882   26.5279  -73.3578 C.2       1 UNK         0.5165 
     66 O         -82.7816   25.9734  -72.8849 O.2       1 UNK        -0.5079 
     67 H67       -83.7233   27.9019  -74.7227 H         1 UNK         0.0900 
     68 H68       -84.0221   29.5986  -74.3102 H         1 UNK         0.0900 
     69 H69       -83.9852   29.0812  -75.9893 H         1 UNK         0.0900 
     70 H70       -80.2199   29.1042  -74.2338 H         1 UNK         0.2959 
     71 H71       -80.4635   27.8905  -72.4695 H         1 UNK         0.1079 
     72 H72       -82.4351   27.9376  -71.0159 H         1 UNK         0.0837 
     73 H73       -83.4352   28.5774  -72.2769 H         1 UNK         0.0837 
     74 H74       -81.5523   29.2656  -69.2353 H         1 UNK         0.0685 
     75 H75       -81.0158   30.9223  -69.2971 H         1 UNK         0.0685 
     76 H76       -79.9865   27.4616  -69.7926 H         1 UNK         0.1434 
     77 H77       -75.9741   28.4591  -70.8708 H         1 UNK         0.1329 
     78 H78       -78.9528   31.5353  -70.6577 H         1 UNK         0.1335 
     79 H79       -75.5809   31.3168  -70.5092 H         1 UNK         0.0680 
     80 H80       -76.8077   32.1076  -71.4591 H         1 UNK         0.0680 
     81 H81       -74.3024   28.6099  -72.4355 H         1 UNK         0.1032 
     82 H82       -74.0235   29.7825  -71.1769 H         1 UNK         0.1032 
     83 H83       -72.7150   31.1561  -72.9600 H         1 UNK         0.0461 
     84 H84       -69.8084   28.5957  -71.9849 H         1 UNK         0.3453 
     85 H85       -70.6101   28.5199  -73.5325 H         1 UNK         0.3453 
     86 H86       -73.3046   28.7946  -74.5539 H         1 UNK         0.2984 
     87 H87       -72.8356   29.5767  -77.1336 H         1 UNK         0.0554 
     88 H88       -70.7737   30.7829  -77.7793 H         1 UNK         0.0847 
     89 H89       -70.7657   29.1736  -78.4810 H         1 UNK         0.0847 
     90 H90       -69.7700   29.5269  -77.0691 H         1 UNK         0.0847 
     91 H91       -72.7246   27.3926  -76.8681 H         1 UNK         0.3141 
     92 H92       -70.4321   25.0714  -75.8144 H         1 UNK         0.0743 
     93 H93       -71.0296   25.5774  -73.4439 H         1 UNK         0.0784 
     94 H94       -72.7196   25.7633  -73.8900 H         1 UNK         0.0784 
     95 H95       -71.9342   24.1917  -74.0311 H         1 UNK         0.0784 
     96 H96       -73.2889   24.8690  -76.1232 H         1 UNK         0.3213 
     97 H97       -73.2838   24.9581  -79.6977 H         1 UNK         0.0855 
     98 H98       -73.9140   22.7047  -77.7162 H         1 UNK         0.0814 
     99 H99       -72.7962   22.5819  -79.0683 H         1 UNK         0.0814 
    100 H100      -74.5074   22.8322  -79.3713 H         1 UNK         0.0814 
    101 H101      -75.4423   24.6924  -77.8950 H         1 UNK         0.3105 
    102 H102      -76.0149   28.2200  -77.3484 H         1 UNK         0.0547 
    103 H103      -78.2461   27.4378  -78.1060 H         1 UNK         0.0837 
    104 H104      -77.5384   25.9624  -78.7569 H         1 UNK         0.0837 
    105 H105      -77.1332   27.5203  -79.4634 H         1 UNK         0.0837 
    106 H106      -77.3182   25.9369  -76.2644 H         1 UNK         0.3020 
    107 H107      -75.3889   25.6274  -73.2856 H         1 UNK         0.1245 
    108 H108      -78.2027   26.6547  -73.9213 H         1 UNK         0.0781 
    109 H109      -77.0482   27.4101  -72.8815 H         1 UNK         0.0781 
    110 H110      -76.4594   26.2297  -70.2538 H         1 UNK         0.0836 
    111 H111      -77.9703   25.8472  -69.4710 H         1 UNK         0.0836 
    112 H112      -77.5666   24.1367  -74.3577 H         1 UNK         0.3022 
    113 H113      -75.6219   21.7034  -76.1257 H         1 UNK         0.0747 
    114 H114      -76.8638   20.2178  -74.5759 H         1 UNK         0.0793 
    115 H115      -75.5777   21.0454  -73.7146 H         1 UNK         0.0793 
    116 H116      -77.2411   21.5805  -73.5210 H         1 UNK         0.0793 
    117 H117      -78.4331   21.9657  -75.6795 H         1 UNK         0.3047 
    118 H118      -79.1705   23.9916  -78.5182 H         1 UNK         0.0822 
    119 H119      -80.6278   22.0626  -79.0596 H         1 UNK         0.0807 
    120 H120      -79.7169   21.0232  -77.9633 H         1 UNK         0.0807 
    121 H121      -78.9554   21.6646  -79.4123 H         1 UNK         0.0807 
    122 H122      -80.9021   22.8005  -76.6316 H         1 UNK         0.2946 
    123 H123      -82.0989   24.5193  -75.2765 H         1 UNK         0.1144 
    124 H124      -79.8601   23.6069  -73.3499 H         1 UNK         0.0793 
    125 H125      -80.9598   22.5385  -74.2063 H         1 UNK         0.0793 
    126 H126      -81.5761   23.5999  -72.9618 H         1 UNK         0.0793 
    127 H127      -80.2175   26.4962  -74.6558 H         1 UNK         0.2896 
@<TRIPOS>BOND
     1    1    2 1    
     2    1   67 1    
     3    1   68 1    
     4    1   69 1    
     5    2    3 2    
     6    2    4 am   BACKBONE|DICT|INTERRES
     7    4    5 1    
     8    4   70 1    
     9    5    6 1    
    10    5   65 1    
    11    5   71 1    
    12    6    7 1    
    13    6   72 1    
    14    6   73 1    
    15    7    8 1    
    16    8    9 1    
    17    8   74 1    
    18    8   75 1    
    19    9   10 ar   
    20    9   14 ar   
    21   10   11 ar   
    22   10   76 1    
    23   11   12 ar   
    24   11   48 1    
    25   12   13 ar   
    26   12   77 1    
    27   13   14 ar   
    28   13   15 1    
    29   14   78 1    
    30   15   16 1    
    31   15   79 1    
    32   15   80 1    
    33   16   17 1    
    34   17   18 1    
    35   17   81 1    
    36   17   82 1    
    37   18   19 1    
    38   18   22 1    
    39   18   83 1    
    40   19   20 am   BACKBONE|DICT|INTERRES
    41   19   21 2    
    42   20   84 1    
    43   20   85 1    
    44   22   23 am   BACKBONE|DICT|INTERRES
    45   22   86 1    
    46   23   24 2    
    47   23   25 1    
    48   25   26 1    
    49   25   27 1    
    50   25   87 1    
    51   26   88 1    
    52   26   89 1    
    53   26   90 1    
    54   27   28 am   BACKBONE|DICT|INTERRES
    55   27   91 1    
    56   28   29 2    
    57   28   30 1    
    58   30   31 1    
    59   30   32 1    
    60   30   92 1    
    61   31   93 1    
    62   31   94 1    
    63   31   95 1    
    64   32   33 am   BACKBONE|DICT|INTERRES
    65   32   96 1    
    66   33   34 2    
    67   33   35 1    
    68   35   36 1    
    69   35   37 1    
    70   35   97 1    
    71   36   98 1    
    72   36   99 1    
    73   36  100 1    
    74   37   38 am   BACKBONE|DICT|INTERRES
    75   37  101 1    
    76   38   39 2    
    77   38   40 1    
    78   40   41 1    
    79   40   42 1    
    80   40  102 1    
    81   41  103 1    
    82   41  104 1    
    83   41  105 1    
    84   42   43 am   BACKBONE|DICT|INTERRES
    85   42  106 1    
    86   43   44 2    
    87   43   45 1    
    88   45   46 1    
    89   45   49 1    
    90   45  107 1    
    91   46   47 1    
    92   46  108 1    
    93   46  109 1    
    94   47   48 1    
    95   48  110 1    
    96   48  111 1    
    97   49   50 am   BACKBONE|DICT|INTERRES
    98   49  112 1    
    99   50   51 2    
   100   50   52 1    
   101   52   53 1    
   102   52   54 1    
   103   52  113 1    
   104   53  114 1    
   105   53  115 1    
   106   53  116 1    
   107   54   55 am   BACKBONE|DICT|INTERRES
   108   54  117 1    
   109   55   56 2    
   110   55   57 1    
   111   57   58 1    
   112   57   59 1    
   113   57  118 1    
   114   58  119 1    
   115   58  120 1    
   116   58  121 1    
   117   59   60 am   BACKBONE|DICT|INTERRES
   118   59  122 1    
   119   60   61 2    
   120   60   62 1    
   121   62   63 1    
   122   62   64 1    
   123   62  123 1    
   124   63  124 1    
   125   63  125 1    
   126   63  126 1    
   127   64   65 am   BACKBONE|DICT|INTERRES
   128   64  127 1    
   129   65   66 2    
@<TRIPOS>SUBSTRUCTURE
     1 UNK         1 GROUP             0       ****    0 ROOT    
