@<TRIPOS>MOLECULE
3R135
127   129    1
SMALL
USER_CHARGES


@<TRIPOS>ATOM
      1 CA        -82.4942   21.2895  -73.4827 C.3       0 UNK        -0.1998 
      2 C         -82.4229   22.7914  -73.2527 C.2       0 UNK         0.4909 
      3 O         -83.1525   23.5421  -73.9014 O.2       0 UNK        -0.5240 
      4 N         -81.5456   23.2235  -72.3346 N.am      1 UNK        -0.4739 
      5 CA        -81.2724   24.6131  -71.9410 C.3       1 UNK         0.0864 
      6 C6        -80.1530   24.6394  -70.8614 C.3       11 UNK        -0.0881 
      7 S7        -79.5371   26.2984  -70.3987 S.3       11 UNK        -0.2682 
      8 C8        -77.8925   26.2649  -71.1853 C.3       11 UNK         0.0289 
      9 C9        -77.4112   27.6605  -71.5417 C.ar      11 UNK        -0.0687 
     10 C10       -77.9804   28.3392  -72.6235 C.ar      11 UNK        -0.0823 
     11 C11       -77.5193   29.6080  -72.9862 C.ar      11 UNK        -0.0830 
     12 C12       -76.4711   30.1901  -72.2662 C.ar      11 UNK        -0.1021 
     13 C13       -75.8984   29.5222  -71.1793 C.ar      11 UNK        -0.0753 
     14 C14       -76.3793   28.2609  -70.8156 C.ar      11 UNK        -0.0933 
     15 C15       -74.7569   30.1579  -70.4013 C.3       11 UNK         0.0166 
     16 S16       -73.1867   29.3150  -70.7619 S.3       11 UNK        -0.2615 
     17 C17       -72.0270   30.7173  -70.8827 C.3       11 UNK        -0.0865 
     18 CA        -71.9669   31.3394  -72.3037 C.3       10 UNK         0.0862 
     19 C         -70.9798   32.5427  -72.3300 C.2       10 UNK         0.5551 
     20 N         -69.8763   32.4838  -73.0655 N.am      10 UNK        -0.7319 
     21 O         -71.2240   33.5491  -71.6693 O.2       10 UNK        -0.5018 
     22 N         -71.7414   30.3195  -73.3422 N.am      10 UNK        -0.4509 
     23 C         -71.9547   30.4799  -74.6524 C.2       10 UNK         0.4899 
     24 O         -72.3406   31.5337  -75.1581 O.2       10 UNK        -0.4839 
     25 CA        -71.7106   29.2620  -75.5608 C.3       9 UNK         0.0222 
     26 CB        -70.2117   29.0793  -75.8681 C.3       9 UNK        -0.1966 
     27 N         -72.3289   28.0158  -75.0873 N.am      9 UNK        -0.4218 
     28 C         -72.0246   27.2681  -74.0153 C.2       9 UNK         0.5020 
     29 O         -71.1263   27.5405  -73.2170 O.2       9 UNK        -0.5274 
     30 CA        -72.8653   25.9975  -73.7940 C.3       8 UNK         0.0270 
     31 CB        -74.1698   26.3318  -73.0517 C.3       8 UNK        -0.1976 
     32 N         -73.1791   25.2849  -75.0357 N.am      8 UNK        -0.4313 
     33 C         -72.2777   24.6778  -75.8223 C.2       8 UNK         0.5041 
     34 O         -71.0704   24.6377  -75.5818 O.2       8 UNK        -0.5577 
     35 CA        -72.8105   23.9979  -77.0928 C.3       7 UNK         0.0284 
     36 CB        -73.3732   22.6028  -76.7722 C.3       7 UNK        -0.1958 
     37 N         -73.8429   24.8113  -77.7362 N.am      7 UNK        -0.4454 
     38 C         -73.5946   25.7738  -78.6354 C.2       7 UNK         0.5089 
     39 O         -72.4746   26.0199  -79.0839 O.2       7 UNK        -0.5125 
     40 CA        -74.7935   26.6132  -79.1199 C.3       6 UNK         0.0408 
     41 CB        -75.3640   26.0293  -80.4218 C.3       6 UNK        -0.1791 
     42 N         -75.8714   26.7371  -78.1339 N.am      6 UNK        -0.4762 
     43 C         -75.7548   27.3518  -76.9471 C.2       6 UNK         0.5007 
     44 O         -74.7196   27.8937  -76.5622 O.2       6 UNK        -0.5032 
     45 CA        -76.9729   27.2794  -76.0009 C.3       5 UNK         0.0783 
     46 C46       -77.9537   28.4541  -76.2283 C.3       11 UNK        -0.0857 
     47 S47       -77.2918   30.0750  -75.7115 S.3       11 UNK        -0.2512 
     48 C48       -78.1621   30.3643  -74.1394 C.3       11 UNK         0.0225 
     49 N         -77.6701   25.9870  -76.0645 N.am      5 UNK        -0.4615 
     50 C         -77.1112   24.7880  -75.8372 C.2       4 UNK         0.5053 
     51 O         -75.9139   24.6448  -75.5875 O.2       4 UNK        -0.5105 
     52 CA        -78.0068   23.5383  -75.9161 C.3       4 UNK         0.0263 
     53 CB        -77.8871   22.7024  -74.6290 C.3       4 UNK        -0.1981 
     54 N         -79.4150   23.8789  -76.1274 N.am      4 UNK        -0.4224 
     55 C         -80.0796   23.7764  -77.2873 C.2       3 UNK         0.4895 
     56 O         -79.5753   23.3474  -78.3254 O.2       3 UNK        -0.5091 
     57 CA        -81.5535   24.2320  -77.3095 C.3       3 UNK         0.0250 
     58 CB        -82.4951   23.0174  -77.3040 C.3       3 UNK        -0.1996 
     59 N         -81.9091   25.1266  -76.2028 N.am      3 UNK        -0.4254 
     60 C         -81.4985   26.4003  -76.1074 C.2       2 UNK         0.5004 
     61 O         -80.8332   26.9640  -76.9757 O.2       2 UNK        -0.5226 
     62 CA        -81.8241   27.1586  -74.8055 C.3       2 UNK         0.0269 
     63 CB        -83.1277   27.9567  -74.9614 C.3       2 UNK        -0.1926 
     64 N         -81.9151   26.3068  -73.6133 N.am      2 UNK        -0.4687 
     65 C         -80.9503   25.4844  -73.1755 C.2       1 UNK         0.5165 
     66 O         -79.8643   25.3566  -73.7400 O.2       1 UNK        -0.5079 
     67 H67       -83.5324   20.9607  -73.4980 H         1 UNK         0.0900 
     68 H68       -82.0403   21.0318  -74.4380 H         1 UNK         0.0900 
     69 H69       -81.9778   20.7336  -72.7009 H         1 UNK         0.0900 
     70 H70       -80.9804   22.5335  -71.8610 H         1 UNK         0.2959 
     71 H71       -82.1824   25.0059  -71.4833 H         1 UNK         0.1079 
     72 H72       -79.3085   24.0279  -71.1849 H         1 UNK         0.0837 
     73 H73       -80.5207   24.1629  -69.9512 H         1 UNK         0.0837 
     74 H74       -77.9118   25.6673  -72.0969 H         1 UNK         0.0685 
     75 H75       -77.1889   25.7688  -70.5151 H         1 UNK         0.0685 
     76 H76       -78.7826   27.8738  -73.1795 H         1 UNK         0.1434 
     77 H77       -76.1034   31.1663  -72.5519 H         1 UNK         0.1329 
     78 H78       -75.9313   27.7397  -69.9806 H         1 UNK         0.1335 
     79 H79       -74.9590   30.1010  -69.3309 H         1 UNK         0.0680 
     80 H80       -74.6803   31.2184  -70.6452 H         1 UNK         0.0680 
     81 H81       -71.0395   30.3545  -70.5920 H         1 UNK         0.1032 
     82 H82       -72.2996   31.4689  -70.1389 H         1 UNK         0.1032 
     83 H83       -72.9509   31.7663  -72.5057 H         1 UNK         0.0461 
     84 H84       -69.6735   31.6616  -73.6104 H         1 UNK         0.3453 
     85 H85       -69.2454   33.2694  -73.0776 H         1 UNK         0.3453 
     86 H86       -71.4416   29.4020  -73.0233 H         1 UNK         0.2984 
     87 H87       -72.2079   29.4782  -76.5078 H         1 UNK         0.0554 
     88 H88       -69.7961   29.9798  -76.3218 H         1 UNK         0.0847 
     89 H89       -70.0499   28.2595  -76.5680 H         1 UNK         0.0847 
     90 H90       -69.6296   28.8716  -74.9700 H         1 UNK         0.0847 
     91 H91       -73.1496   27.7417  -75.6260 H         1 UNK         0.3141 
     92 H92       -72.2833   25.3190  -73.1669 H         1 UNK         0.0743 
     93 H93       -73.9576   26.7201  -72.0554 H         1 UNK         0.0784 
     94 H94       -74.7512   27.0912  -73.5742 H         1 UNK         0.0784 
     95 H95       -74.8005   25.4514  -72.9264 H         1 UNK         0.0784 
     96 H96       -74.1638   25.1987  -75.2781 H         1 UNK         0.3213 
     97 H97       -71.9711   23.8680  -77.7800 H         1 UNK         0.0855 
     98 H98       -74.2093   22.6473  -76.0736 H         1 UNK         0.0814 
     99 H99       -72.6072   21.9709  -76.3206 H         1 UNK         0.0814 
    100 H100      -73.7176   22.0980  -77.6748 H         1 UNK         0.0814 
    101 H101      -74.7843   24.7136  -77.3772 H         1 UNK         0.3105 
    102 H102      -74.4228   27.6183  -79.3317 H         1 UNK         0.0547 
    103 H103      -76.1527   26.6617  -80.8297 H         1 UNK         0.0837 
    104 H104      -74.5892   25.9492  -81.1856 H         1 UNK         0.0837 
    105 H105      -75.7764   25.0309  -80.2710 H         1 UNK         0.0837 
    106 H106      -76.7542   26.3030  -78.3636 H         1 UNK         0.3020 
    107 H107      -76.5843   27.3613  -74.9846 H         1 UNK         0.1245 
    108 H108      -78.8756   28.2748  -75.6767 H         1 UNK         0.0781 
    109 H109      -78.2501   28.5150  -77.2773 H         1 UNK         0.0781 
    110 H110      -79.2165   30.1010  -74.2361 H         1 UNK         0.0836 
    111 H111      -78.1431   31.4343  -73.9265 H         1 UNK         0.0836 
    112 H112      -78.6585   26.0215  -76.2707 H         1 UNK         0.3022 
    113 H113      -77.6369   22.9336  -76.7465 H         1 UNK         0.0747 
    114 H114      -78.5104   21.8095  -74.6773 H         1 UNK         0.0793 
    115 H115      -76.8600   22.3708  -74.4708 H         1 UNK         0.0793 
    116 H116      -78.1840   23.2712  -73.7470 H         1 UNK         0.0793 
    117 H117      -79.8762   24.2995  -75.3249 H         1 UNK         0.3047 
    118 H118      -81.7090   24.7736  -78.2454 H         1 UNK         0.0822 
    119 H119      -82.2941   22.3635  -78.1539 H         1 UNK         0.0807 
    120 H120      -83.5393   23.3234  -77.3711 H         1 UNK         0.0807 
    121 H121      -82.3784   22.4205  -76.4001 H         1 UNK         0.0807 
    122 H122      -82.4351   24.7224  -75.4329 H         1 UNK         0.2946 
    123 H123      -81.0108   27.8662  -74.6348 H         1 UNK         0.1144 
    124 H124      -83.3172   28.5835  -74.0897 H         1 UNK         0.0793 
    125 H125      -83.9883   27.3005  -75.0984 H         1 UNK         0.0793 
    126 H126      -83.0800   28.6176  -75.8283 H         1 UNK         0.0793 
    127 H127      -82.7999   26.3133  -73.1258 H         1 UNK         0.2896 
@<TRIPOS>BOND
     1    1    2 1    
     2    1   67 1    
     3    1   68 1    
     4    1   69 1    
     5    2    3 2    
     6    2    4 am   BACKBONE|DICT|INTERRES
     7    4    5 1    
     8    4   70 1    
     9    5    6 1    
    10    5   65 1    
    11    5   71 1    
    12    6    7 1    
    13    6   72 1    
    14    6   73 1    
    15    7    8 1    
    16    8    9 1    
    17    8   74 1    
    18    8   75 1    
    19    9   10 ar   
    20    9   14 ar   
    21   10   11 ar   
    22   10   76 1    
    23   11   12 ar   
    24   11   48 1    
    25   12   13 ar   
    26   12   77 1    
    27   13   14 ar   
    28   13   15 1    
    29   14   78 1    
    30   15   16 1    
    31   15   79 1    
    32   15   80 1    
    33   16   17 1    
    34   17   18 1    
    35   17   81 1    
    36   17   82 1    
    37   18   19 1    
    38   18   22 1    
    39   18   83 1    
    40   19   20 am   BACKBONE|DICT|INTERRES
    41   19   21 2    
    42   20   84 1    
    43   20   85 1    
    44   22   23 am   BACKBONE|DICT|INTERRES
    45   22   86 1    
    46   23   24 2    
    47   23   25 1    
    48   25   26 1    
    49   25   27 1    
    50   25   87 1    
    51   26   88 1    
    52   26   89 1    
    53   26   90 1    
    54   27   28 am   BACKBONE|DICT|INTERRES
    55   27   91 1    
    56   28   29 2    
    57   28   30 1    
    58   30   31 1    
    59   30   32 1    
    60   30   92 1    
    61   31   93 1    
    62   31   94 1    
    63   31   95 1    
    64   32   33 am   BACKBONE|DICT|INTERRES
    65   32   96 1    
    66   33   34 2    
    67   33   35 1    
    68   35   36 1    
    69   35   37 1    
    70   35   97 1    
    71   36   98 1    
    72   36   99 1    
    73   36  100 1    
    74   37   38 am   BACKBONE|DICT|INTERRES
    75   37  101 1    
    76   38   39 2    
    77   38   40 1    
    78   40   41 1    
    79   40   42 1    
    80   40  102 1    
    81   41  103 1    
    82   41  104 1    
    83   41  105 1    
    84   42   43 am   BACKBONE|DICT|INTERRES
    85   42  106 1    
    86   43   44 2    
    87   43   45 1    
    88   45   46 1    
    89   45   49 1    
    90   45  107 1    
    91   46   47 1    
    92   46  108 1    
    93   46  109 1    
    94   47   48 1    
    95   48  110 1    
    96   48  111 1    
    97   49   50 am   BACKBONE|DICT|INTERRES
    98   49  112 1    
    99   50   51 2    
   100   50   52 1    
   101   52   53 1    
   102   52   54 1    
   103   52  113 1    
   104   53  114 1    
   105   53  115 1    
   106   53  116 1    
   107   54   55 am   BACKBONE|DICT|INTERRES
   108   54  117 1    
   109   55   56 2    
   110   55   57 1    
   111   57   58 1    
   112   57   59 1    
   113   57  118 1    
   114   58  119 1    
   115   58  120 1    
   116   58  121 1    
   117   59   60 am   BACKBONE|DICT|INTERRES
   118   59  122 1    
   119   60   61 2    
   120   60   62 1    
   121   62   63 1    
   122   62   64 1    
   123   62  123 1    
   124   63  124 1    
   125   63  125 1    
   126   63  126 1    
   127   64   65 am   BACKBONE|DICT|INTERRES
   128   64  127 1    
   129   65   66 2    
@<TRIPOS>SUBSTRUCTURE
     1 UNK         1 GROUP             0       ****    0 ROOT    
