@<TRIPOS>MOLECULE
3R135
127   129    1
SMALL
USER_CHARGES


@<TRIPOS>ATOM
      1 CA        -84.0192   29.2547  -75.1660 C.3       0 UNK        -0.1998 
      2 C         -82.7872   28.8486  -75.9605 C.2       0 UNK         0.4909 
      3 O         -82.8786   28.6470  -77.1718 O.2       0 UNK        -0.5240 
      4 N         -81.6352   28.7297  -75.2872 N.am      1 UNK        -0.4739 
      5 CA        -80.3488   28.3443  -75.8867 C.3       1 UNK         0.0864 
      6 C6        -79.1557   28.6471  -74.9497 C.3       11 UNK        -0.0881 
      7 S7        -79.0406   30.4122  -74.5010 S.3       11 UNK        -0.2682 
      8 C8        -79.6069   30.4043  -72.7678 C.3       11 UNK         0.0289 
      9 C9        -78.6043   29.7244  -71.8469 C.ar      11 UNK        -0.0687 
     10 C10       -78.8473   28.4391  -71.3520 C.ar      11 UNK        -0.0823 
     11 C11       -77.9117   27.8041  -70.5287 C.ar      11 UNK        -0.0830 
     12 C12       -76.7334   28.4771  -70.1859 C.ar      11 UNK        -0.1021 
     13 C13       -76.4762   29.7583  -70.6826 C.ar      11 UNK        -0.0753 
     14 C14       -77.4223   30.3820  -71.4998 C.ar      11 UNK        -0.0933 
     15 C15       -75.1646   30.4612  -70.3644 C.3       11 UNK         0.0166 
     16 S16       -74.1441   30.6822  -71.8580 S.3       11 UNK        -0.2615 
     17 C17       -73.8457   28.9516  -72.3646 C.3       11 UNK        -0.0865 
     18 CA        -72.3967   28.7305  -72.8705 C.3       10 UNK         0.0862 
     19 C         -72.0786   27.2193  -73.0737 C.2       10 UNK         0.5551 
     20 N         -71.5722   26.7830  -74.2213 N.am      10 UNK        -0.7319 
     21 O         -72.2712   26.4287  -72.1531 O.2       10 UNK        -0.5018 
     22 N         -72.1003   29.5733  -74.0401 N.am      10 UNK        -0.4509 
     23 C         -70.8883   30.0445  -74.3526 C.2       10 UNK         0.4899 
     24 O         -69.8838   29.8624  -73.6621 O.2       10 UNK        -0.4839 
     25 CA        -70.7905   30.8530  -75.6625 C.3       9 UNK         0.0222 
     26 CB        -69.3313   31.0916  -76.1064 C.3       9 UNK        -0.1966 
     27 N         -71.5701   30.2825  -76.7704 N.am      9 UNK        -0.4218 
     28 C         -71.4733   29.0502  -77.2891 C.2       9 UNK         0.5020 
     29 O         -70.7659   28.1569  -76.8190 O.2       9 UNK        -0.5274 
     30 CA        -72.3314   28.7750  -78.5391 C.3       8 UNK         0.0270 
     31 CB        -71.8529   27.5333  -79.3149 C.3       8 UNK        -0.1976 
     32 N         -73.7448   28.6026  -78.2064 N.am      8 UNK        -0.4313 
     33 C         -74.5886   29.5631  -77.8067 C.2       8 UNK         0.5041 
     34 O         -74.2644   30.7475  -77.7000 O.2       8 UNK        -0.5577 
     35 CA        -76.0356   29.1433  -77.4789 C.3       7 UNK         0.0284 
     36 CB        -77.0155   29.7031  -78.5229 C.3       7 UNK        -0.1958 
     37 N         -76.2245   27.6901  -77.3792 N.am      7 UNK        -0.4454 
     38 C         -75.7986   26.9432  -76.3530 C.2       7 UNK         0.5089 
     39 O         -75.1939   27.4102  -75.3870 O.2       7 UNK        -0.5125 
     40 CA        -76.0998   25.4364  -76.4512 C.3       6 UNK         0.0408 
     41 CB        -75.0374   24.6955  -77.2874 C.3       6 UNK        -0.1791 
     42 N         -76.2957   24.8299  -75.1310 N.am      6 UNK        -0.4762 
     43 C         -75.3880   24.5699  -74.1754 C.2       6 UNK         0.5007 
     44 O         -74.1694   24.5909  -74.3440 O.2       6 UNK        -0.5032 
     45 CA        -75.9459   24.2223  -72.7853 C.3       5 UNK         0.0783 
     46 C46       -76.4359   25.5089  -72.0800 C.3       11 UNK        -0.0857 
     47 S47       -76.7859   25.2416  -70.3113 S.3       11 UNK        -0.2512 
     48 C48       -78.1797   26.3866  -70.0281 C.3       11 UNK         0.0225 
     49 N         -77.0061   23.2219  -72.9230 N.am      5 UNK        -0.4615 
     50 C         -76.9311   21.9602  -72.4817 C.2       4 UNK         0.5053 
     51 O         -76.0169   21.5253  -71.7807 O.2       4 UNK        -0.5105 
     52 CA        -78.0549   21.0035  -72.9287 C.3       4 UNK         0.0263 
     53 CB        -79.2056   21.0124  -71.9096 C.3       4 UNK        -0.1981 
     54 N         -78.5820   21.3275  -74.2581 N.am      4 UNK        -0.4224 
     55 C         -77.8634   21.3190  -75.3905 C.2       3 UNK         0.4895 
     56 O         -76.7205   20.8667  -75.4657 O.2       3 UNK        -0.5091 
     57 CA        -78.4962   21.9410  -76.6509 C.3       3 UNK         0.0250 
     58 CB        -78.7894   20.8513  -77.6961 C.3       3 UNK        -0.1996 
     59 N         -79.7126   22.7422  -76.4509 N.am      3 UNK        -0.4254 
     60 C         -79.8447   23.8327  -75.6822 C.2       2 UNK         0.5004 
     61 O         -78.9903   24.2316  -74.8854 O.2       2 UNK        -0.5226 
     62 CA        -81.1873   24.5722  -75.7939 C.3       2 UNK         0.0269 
     63 CB        -82.1912   24.0029  -74.7784 C.3       2 UNK        -0.1926 
     64 N         -81.0607   26.0148  -75.5756 N.am      2 UNK        -0.4687 
     65 C         -80.3222   26.8612  -76.3109 C.2       1 UNK         0.5165 
     66 O         -79.6512   26.5233  -77.2876 O.2       1 UNK        -0.5079 
     67 H67       -84.4328   30.1812  -75.5633 H         1 UNK         0.0900 
     68 H68       -83.7925   29.4100  -74.1113 H         1 UNK         0.0900 
     69 H69       -84.7837   28.4815  -75.2383 H         1 UNK         0.0900 
     70 H70       -81.6164   28.9317  -74.2989 H         1 UNK         0.2959 
     71 H71       -80.2195   28.9334  -76.7976 H         1 UNK         0.1079 
     72 H72       -79.2050   28.0302  -74.0523 H         1 UNK         0.0837 
     73 H73       -78.2174   28.3804  -75.4360 H         1 UNK         0.0837 
     74 H74       -80.5845   29.9257  -72.7010 H         1 UNK         0.0685 
     75 H75       -79.7512   31.4355  -72.4420 H         1 UNK         0.0685 
     76 H76       -79.7611   27.9269  -71.6203 H         1 UNK         0.1434 
     77 H77       -76.0039   27.9886  -69.5544 H         1 UNK         0.1329 
     78 H78       -77.2232   31.3700  -71.8924 H         1 UNK         0.1335 
     79 H79       -75.3773   31.4397  -69.9316 H         1 UNK         0.0680 
     80 H80       -74.5936   29.9097  -69.6158 H         1 UNK         0.0680 
     81 H81       -74.0499   28.2994  -71.5135 H         1 UNK         0.1032 
     82 H82       -74.5718   28.6794  -73.1324 H         1 UNK         0.1032 
     83 H83       -71.7356   29.0462  -72.0610 H         1 UNK         0.0461 
     84 H84       -71.3765   27.4156  -74.9879 H         1 UNK         0.3453 
     85 H85       -71.4015   25.7966  -74.3300 H         1 UNK         0.3453 
     86 H86       -72.8707   29.7491  -74.6678 H         1 UNK         0.2984 
     87 H87       -71.2330   31.8270  -75.4491 H         1 UNK         0.0554 
     88 H88       -68.7682   31.6220  -75.3374 H         1 UNK         0.0847 
     89 H89       -69.2850   31.6956  -77.0124 H         1 UNK         0.0847 
     90 H90       -68.8110   30.1532  -76.3018 H         1 UNK         0.0847 
     91 H91       -72.2864   30.8834  -77.1693 H         1 UNK         0.3141 
     92 H92       -72.2354   29.6376  -79.2022 H         1 UNK         0.0743 
     93 H93       -70.8004   27.6257  -79.5867 H         1 UNK         0.0784 
     94 H94       -71.9579   26.6208  -78.7261 H         1 UNK         0.0784 
     95 H95       -72.4140   27.4022  -80.2404 H         1 UNK         0.0784 
     96 H96       -74.0994   27.6591  -78.2376 H         1 UNK         0.3213 
     97 H97       -76.2820   29.5884  -76.5120 H         1 UNK         0.0855 
     98 H98       -76.8242   29.2965  -79.5167 H         1 UNK         0.0814 
     99 H99       -76.9323   30.7887  -78.5934 H         1 UNK         0.0814 
    100 H100      -78.0487   29.4773  -78.2584 H         1 UNK         0.0814 
    101 H101      -76.7329   27.2449  -78.1311 H         1 UNK         0.3105 
    102 H102      -77.0595   25.3244  -76.9584 H         1 UNK         0.0547 
    103 H103      -75.0594   25.0257  -78.3263 H         1 UNK         0.0837 
    104 H104      -74.0275   24.8734  -76.9166 H         1 UNK         0.0837 
    105 H105      -75.2105   23.6193  -77.2863 H         1 UNK         0.0837 
    106 H106      -77.2787   24.7315  -74.8833 H         1 UNK         0.3020 
    107 H107      -75.1118   23.8158  -72.2080 H         1 UNK         0.1245 
    108 H108      -77.3267   25.8996  -72.5763 H         1 UNK         0.0781 
    109 H109      -75.6817   26.2966  -72.1431 H         1 UNK         0.0781 
    110 H110      -79.0668   25.9689  -70.5068 H         1 UNK         0.0836 
    111 H111      -78.3952   26.4234  -68.9596 H         1 UNK         0.0836 
    112 H112      -77.7940   23.4817  -73.5073 H         1 UNK         0.3022 
    113 H113      -77.6363   19.9957  -72.9706 H         1 UNK         0.0747 
    114 H114      -78.8449   20.7526  -70.9133 H         1 UNK         0.0793 
    115 H115      -79.9759   20.2873  -72.1731 H         1 UNK         0.0793 
    116 H116      -79.6760   21.9942  -71.8396 H         1 UNK         0.0793 
    117 H117      -79.5133   21.7144  -74.2959 H         1 UNK         0.3047 
    118 H118      -77.7432   22.6135  -77.0671 H         1 UNK         0.0822 
    119 H119      -79.1150   21.2838  -78.6424 H         1 UNK         0.0807 
    120 H120      -79.5644   20.1640  -77.3545 H         1 UNK         0.0807 
    121 H121      -77.8984   20.2579  -77.9071 H         1 UNK         0.0807 
    122 H122      -80.4975   22.4799  -77.0302 H         1 UNK         0.2946 
    123 H123      -81.5807   24.4289  -76.8028 H         1 UNK         0.1144 
    124 H124      -82.3441   22.9337  -74.9317 H         1 UNK         0.0793 
    125 H125      -83.1660   24.4821  -74.8718 H         1 UNK         0.0793 
    126 H126      -81.8470   24.1390  -73.7520 H         1 UNK         0.0793 
    127 H127      -81.5674   26.3963  -74.7910 H         1 UNK         0.2896 
@<TRIPOS>BOND
     1    1    2 1    
     2    1   67 1    
     3    1   68 1    
     4    1   69 1    
     5    2    3 2    
     6    2    4 am   BACKBONE|DICT|INTERRES
     7    4    5 1    
     8    4   70 1    
     9    5    6 1    
    10    5   65 1    
    11    5   71 1    
    12    6    7 1    
    13    6   72 1    
    14    6   73 1    
    15    7    8 1    
    16    8    9 1    
    17    8   74 1    
    18    8   75 1    
    19    9   10 ar   
    20    9   14 ar   
    21   10   11 ar   
    22   10   76 1    
    23   11   12 ar   
    24   11   48 1    
    25   12   13 ar   
    26   12   77 1    
    27   13   14 ar   
    28   13   15 1    
    29   14   78 1    
    30   15   16 1    
    31   15   79 1    
    32   15   80 1    
    33   16   17 1    
    34   17   18 1    
    35   17   81 1    
    36   17   82 1    
    37   18   19 1    
    38   18   22 1    
    39   18   83 1    
    40   19   20 am   BACKBONE|DICT|INTERRES
    41   19   21 2    
    42   20   84 1    
    43   20   85 1    
    44   22   23 am   BACKBONE|DICT|INTERRES
    45   22   86 1    
    46   23   24 2    
    47   23   25 1    
    48   25   26 1    
    49   25   27 1    
    50   25   87 1    
    51   26   88 1    
    52   26   89 1    
    53   26   90 1    
    54   27   28 am   BACKBONE|DICT|INTERRES
    55   27   91 1    
    56   28   29 2    
    57   28   30 1    
    58   30   31 1    
    59   30   32 1    
    60   30   92 1    
    61   31   93 1    
    62   31   94 1    
    63   31   95 1    
    64   32   33 am   BACKBONE|DICT|INTERRES
    65   32   96 1    
    66   33   34 2    
    67   33   35 1    
    68   35   36 1    
    69   35   37 1    
    70   35   97 1    
    71   36   98 1    
    72   36   99 1    
    73   36  100 1    
    74   37   38 am   BACKBONE|DICT|INTERRES
    75   37  101 1    
    76   38   39 2    
    77   38   40 1    
    78   40   41 1    
    79   40   42 1    
    80   40  102 1    
    81   41  103 1    
    82   41  104 1    
    83   41  105 1    
    84   42   43 am   BACKBONE|DICT|INTERRES
    85   42  106 1    
    86   43   44 2    
    87   43   45 1    
    88   45   46 1    
    89   45   49 1    
    90   45  107 1    
    91   46   47 1    
    92   46  108 1    
    93   46  109 1    
    94   47   48 1    
    95   48  110 1    
    96   48  111 1    
    97   49   50 am   BACKBONE|DICT|INTERRES
    98   49  112 1    
    99   50   51 2    
   100   50   52 1    
   101   52   53 1    
   102   52   54 1    
   103   52  113 1    
   104   53  114 1    
   105   53  115 1    
   106   53  116 1    
   107   54   55 am   BACKBONE|DICT|INTERRES
   108   54  117 1    
   109   55   56 2    
   110   55   57 1    
   111   57   58 1    
   112   57   59 1    
   113   57  118 1    
   114   58  119 1    
   115   58  120 1    
   116   58  121 1    
   117   59   60 am   BACKBONE|DICT|INTERRES
   118   59  122 1    
   119   60   61 2    
   120   60   62 1    
   121   62   63 1    
   122   62   64 1    
   123   62  123 1    
   124   63  124 1    
   125   63  125 1    
   126   63  126 1    
   127   64   65 am   BACKBONE|DICT|INTERRES
   128   64  127 1    
   129   65   66 2    
@<TRIPOS>SUBSTRUCTURE
     1 UNK         1 GROUP             0       ****    0 ROOT    
