@<TRIPOS>MOLECULE
3R135
127   129    1
SMALL
USER_CHARGES


@<TRIPOS>ATOM
      1 CA        -84.9032   25.5288  -69.5222 C.3       0 UNK        -0.1998 
      2 C         -84.9655   26.6820  -70.5123 C.2       0 UNK         0.4909 
      3 O         -86.0507   27.1901  -70.7949 O.2       0 UNK        -0.5240 
      4 N         -83.8092   27.0965  -71.0466 N.am      1 UNK        -0.4739 
      5 CA        -83.6796   28.1899  -72.0207 C.3       1 UNK         0.0864 
      6 C6        -82.2501   28.7896  -72.0012 C.3       11 UNK        -0.0881 
      7 S7        -80.9470   27.6403  -72.5767 S.3       11 UNK        -0.2682 
      8 C8        -79.7243   27.7476  -71.2392 C.3       11 UNK         0.0289 
      9 C9        -78.3459   27.3854  -71.7638 C.ar      11 UNK        -0.0687 
     10 C10       -77.8557   26.0804  -71.6518 C.ar      11 UNK        -0.0823 
     11 C11       -76.5860   25.7571  -72.1417 C.ar      11 UNK        -0.0830 
     12 C12       -75.8075   26.7547  -72.7363 C.ar      11 UNK        -0.1021 
     13 C13       -76.2981   28.0537  -72.8787 C.ar      11 UNK        -0.0753 
     14 C14       -77.5643   28.3660  -72.3799 C.ar      11 UNK        -0.0933 
     15 C15       -75.4808   29.1129  -73.5996 C.3       11 UNK         0.0166 
     16 S16       -74.3381   29.9571  -72.4633 S.3       11 UNK        -0.2615 
     17 C17       -74.0136   31.5118  -73.3727 C.3       11 UNK        -0.0865 
     18 CA        -72.6263   31.5787  -74.0645 C.3       10 UNK         0.0862 
     19 C         -71.4571   31.8005  -73.0578 C.2       10 UNK         0.5551 
     20 N         -70.3957   31.0024  -73.0661 N.am      10 UNK        -0.7319 
     21 O         -71.5053   32.7351  -72.2615 O.2       10 UNK        -0.5018 
     22 N         -72.4372   30.4575  -74.9956 N.am      10 UNK        -0.4509 
     23 C         -71.7038   30.4964  -76.1140 C.2       10 UNK         0.4899 
     24 O         -71.1783   31.5212  -76.5518 O.2       10 UNK        -0.4839 
     25 CA        -71.5241   29.1552  -76.8563 C.3       9 UNK         0.0222 
     26 CB        -70.3358   29.1786  -77.8405 C.3       9 UNK        -0.1966 
     27 N         -71.4244   27.9970  -75.9557 N.am      9 UNK        -0.4218 
     28 C         -70.5281   27.8125  -74.9709 C.2       9 UNK         0.5020 
     29 O         -69.6602   28.6298  -74.6633 O.2       9 UNK        -0.5274 
     30 CA        -70.6329   26.5027  -74.1793 C.3       8 UNK         0.0270 
     31 CB        -71.7666   26.5951  -73.1463 C.3       8 UNK        -0.1976 
     32 N         -70.8673   25.3699  -75.0751 N.am      8 UNK        -0.4313 
     33 C         -69.8948   24.6453  -75.6475 C.2       8 UNK         0.5041 
     34 O         -68.6960   24.7907  -75.4047 O.2       8 UNK        -0.5577 
     35 CA        -70.3260   23.5771  -76.6701 C.3       7 UNK         0.0284 
     36 CB        -70.5318   22.2203  -75.9768 C.3       7 UNK        -0.1958 
     37 N         -71.5458   23.9417  -77.3941 N.am      7 UNK        -0.4454 
     38 C         -71.6367   24.9433  -78.2811 C.2       7 UNK         0.5089 
     39 O         -70.6713   25.5951  -78.6768 O.2       7 UNK        -0.5125 
     40 CA        -73.0449   25.2976  -78.7946 C.3       6 UNK         0.0408 
     41 CB        -73.2651   24.7166  -80.2002 C.3       6 UNK        -0.1791 
     42 N         -74.1330   24.8563  -77.9121 N.am      6 UNK        -0.4762 
     43 C         -74.3554   25.3178  -76.6727 C.2       6 UNK         0.5007 
     44 O         -73.6368   26.1542  -76.1168 O.2       6 UNK        -0.5032 
     45 CA        -75.5369   24.6945  -75.9012 C.3       5 UNK         0.0783 
     46 C46       -75.0159   23.9603  -74.6353 C.3       11 UNK        -0.0857 
     47 S47       -76.3377   23.3535  -73.5281 S.3       11 UNK        -0.2512 
     48 C48       -76.0521   24.3359  -72.0167 C.3       11 UNK         0.0225 
     49 N         -76.5942   25.6646  -75.6003 N.am      5 UNK        -0.4615 
     50 C         -77.2725   26.4062  -76.4861 C.2       4 UNK         0.5053 
     51 O         -76.9997   26.4741  -77.6858 O.2       4 UNK        -0.5105 
     52 CA        -78.5201   27.1279  -75.9334 C.3       4 UNK         0.0263 
     53 CB        -79.2417   27.9816  -76.9962 C.3       4 UNK        -0.1981 
     54 N         -79.4732   26.2032  -75.2988 N.am      4 UNK        -0.4224 
     55 C         -79.9929   25.0799  -75.8254 C.2       3 UNK         0.4895 
     56 O         -79.7531   24.6617  -76.9584 O.2       3 UNK        -0.5091 
     57 CA        -80.9522   24.2827  -74.9292 C.3       3 UNK         0.0250 
     58 CB        -80.2924   23.8674  -73.6023 C.3       3 UNK        -0.1996 
     59 N         -82.1875   25.0173  -74.6585 N.am      3 UNK        -0.4254 
     60 C         -83.2086   25.1522  -75.5193 C.2       2 UNK         0.5004 
     61 O         -83.2027   24.6904  -76.6609 O.2       2 UNK        -0.5226 
     62 CA        -84.4674   25.8909  -75.0237 C.3       2 UNK         0.0269 
     63 CB        -85.6648   24.9270  -74.9512 C.3       2 UNK        -0.1926 
     64 N         -84.2678   26.4850  -73.6994 N.am      2 UNK        -0.4687 
     65 C         -84.1000   27.7914  -73.4553 C.2       1 UNK         0.5165 
     66 O         -84.2242   28.6666  -74.3136 O.2       1 UNK        -0.5079 
     67 H67       -85.3005   25.8419  -68.5571 H         1 UNK         0.0900 
     68 H68       -83.8834   25.1759  -69.3703 H         1 UNK         0.0900 
     69 H69       -85.5018   24.6924  -69.8820 H         1 UNK         0.0900 
     70 H70       -82.9435   26.6507  -70.7770 H         1 UNK         0.2959 
     71 H71       -84.3665   28.9844  -71.7193 H         1 UNK         0.1079 
     72 H72       -82.2087   29.6840  -72.6260 H         1 UNK         0.0837 
     73 H73       -82.0198   29.1337  -70.9918 H         1 UNK         0.0837 
     74 H74       -79.7007   28.7600  -70.8328 H         1 UNK         0.0685 
     75 H75       -80.0166   27.0883  -70.4207 H         1 UNK         0.0685 
     76 H76       -78.4623   25.3175  -71.1829 H         1 UNK         0.1434 
     77 H77       -74.8251   26.5199  -73.1113 H         1 UNK         0.1329 
     78 H78       -77.9494   29.3715  -72.4830 H         1 UNK         0.1335 
     79 H79       -74.9159   28.6601  -74.4163 H         1 UNK         0.0680 
     80 H80       -76.1562   29.8365  -74.0582 H         1 UNK         0.0680 
     81 H81       -74.7908   31.6662  -74.1220 H         1 UNK         0.1032 
     82 H82       -74.1333   32.3439  -72.6763 H         1 UNK         0.1032 
     83 H83       -72.6391   32.4917  -74.6630 H         1 UNK         0.0461 
     84 H84       -69.6521   31.1750  -72.4091 H         1 UNK         0.3453 
     85 H85       -70.3080   30.2399  -73.7294 H         1 UNK         0.3453 
     86 H86       -72.8066   29.5704  -74.6891 H         1 UNK         0.2984 
     87 H87       -72.4337   29.0065  -77.4399 H         1 UNK         0.0554 
     88 H88       -70.2416   28.2326  -78.3725 H         1 UNK         0.0847 
     89 H89       -69.3917   29.3700  -77.3293 H         1 UNK         0.0847 
     90 H90       -70.4629   29.9582  -78.5925 H         1 UNK         0.0847 
     91 H91       -72.1481   27.2916  -76.0783 H         1 UNK         0.3141 
     92 H92       -69.6958   26.3546  -73.6379 H         1 UNK         0.0743 
     93 H93       -71.5733   27.3919  -72.4265 H         1 UNK         0.0784 
     94 H94       -72.7202   26.8158  -73.6219 H         1 UNK         0.0784 
     95 H95       -71.8738   25.6671  -72.5845 H         1 UNK         0.0784 
     96 H96       -71.8226   25.2151  -75.3688 H         1 UNK         0.3213 
     97 H97       -69.5182   23.4720  -77.3979 H         1 UNK         0.0855 
     98 H98       -71.3389   22.2566  -75.2439 H         1 UNK         0.0814 
     99 H99       -69.6277   21.9125  -75.4494 H         1 UNK         0.0814 
    100 H100      -70.7658   21.4368  -76.6977 H         1 UNK         0.0814 
    101 H101      -72.3873   23.4340  -77.1651 H         1 UNK         0.3105 
    102 H102      -73.0974   26.3863  -78.8643 H         1 UNK         0.0547 
    103 H103      -72.4878   25.0533  -80.8878 H         1 UNK         0.0837 
    104 H104      -73.2448   23.6261  -80.1957 H         1 UNK         0.0837 
    105 H105      -74.2210   25.0348  -80.6167 H         1 UNK         0.0837 
    106 H106      -74.7751   24.1807  -78.3026 H         1 UNK         0.3020 
    107 H107      -76.0037   23.9430  -76.5415 H         1 UNK         0.1245 
    108 H108      -74.3315   24.5875  -74.0642 H         1 UNK         0.0781 
    109 H109      -74.4232   23.0936  -74.9338 H         1 UNK         0.0781 
    110 H110      -74.9881   24.3498  -71.7749 H         1 UNK         0.0836 
    111 H111      -76.5391   23.8311  -71.1809 H         1 UNK         0.0836 
    112 H112      -76.8932   25.6801  -74.6349 H         1 UNK         0.3022 
    113 H113      -78.1695   27.8038  -75.1532 H         1 UNK         0.0747 
    114 H114      -80.0814   28.5248  -76.5626 H         1 UNK         0.0793 
    115 H115      -78.5659   28.7201  -77.4293 H         1 UNK         0.0793 
    116 H116      -79.6250   27.3700  -77.8138 H         1 UNK         0.0793 
    117 H117      -79.7537   26.4545  -74.3593 H         1 UNK         0.3047 
    118 H118      -81.2106   23.3656  -75.4641 H         1 UNK         0.0822 
    119 H119      -79.3519   23.3457  -73.7819 H         1 UNK         0.0807 
    120 H120      -80.9334   23.1877  -73.0408 H         1 UNK         0.0807 
    121 H121      -80.0766   24.7218  -72.9624 H         1 UNK         0.0807 
    122 H122      -82.2566   25.4756  -73.7625 H         1 UNK         0.2946 
    123 H123      -84.6935   26.6648  -75.7608 H         1 UNK         0.1144 
    124 H124      -85.8721   24.4846  -75.9266 H         1 UNK         0.0793 
    125 H125      -86.5702   25.4449  -74.6338 H         1 UNK         0.0793 
    126 H126      -85.4842   24.1086  -74.2531 H         1 UNK         0.0793 
    127 H127      -84.1869   25.8476  -72.9202 H         1 UNK         0.2896 
@<TRIPOS>BOND
     1    1    2 1    
     2    1   67 1    
     3    1   68 1    
     4    1   69 1    
     5    2    3 2    
     6    2    4 am   BACKBONE|DICT|INTERRES
     7    4    5 1    
     8    4   70 1    
     9    5    6 1    
    10    5   65 1    
    11    5   71 1    
    12    6    7 1    
    13    6   72 1    
    14    6   73 1    
    15    7    8 1    
    16    8    9 1    
    17    8   74 1    
    18    8   75 1    
    19    9   10 ar   
    20    9   14 ar   
    21   10   11 ar   
    22   10   76 1    
    23   11   12 ar   
    24   11   48 1    
    25   12   13 ar   
    26   12   77 1    
    27   13   14 ar   
    28   13   15 1    
    29   14   78 1    
    30   15   16 1    
    31   15   79 1    
    32   15   80 1    
    33   16   17 1    
    34   17   18 1    
    35   17   81 1    
    36   17   82 1    
    37   18   19 1    
    38   18   22 1    
    39   18   83 1    
    40   19   20 am   BACKBONE|DICT|INTERRES
    41   19   21 2    
    42   20   84 1    
    43   20   85 1    
    44   22   23 am   BACKBONE|DICT|INTERRES
    45   22   86 1    
    46   23   24 2    
    47   23   25 1    
    48   25   26 1    
    49   25   27 1    
    50   25   87 1    
    51   26   88 1    
    52   26   89 1    
    53   26   90 1    
    54   27   28 am   BACKBONE|DICT|INTERRES
    55   27   91 1    
    56   28   29 2    
    57   28   30 1    
    58   30   31 1    
    59   30   32 1    
    60   30   92 1    
    61   31   93 1    
    62   31   94 1    
    63   31   95 1    
    64   32   33 am   BACKBONE|DICT|INTERRES
    65   32   96 1    
    66   33   34 2    
    67   33   35 1    
    68   35   36 1    
    69   35   37 1    
    70   35   97 1    
    71   36   98 1    
    72   36   99 1    
    73   36  100 1    
    74   37   38 am   BACKBONE|DICT|INTERRES
    75   37  101 1    
    76   38   39 2    
    77   38   40 1    
    78   40   41 1    
    79   40   42 1    
    80   40  102 1    
    81   41  103 1    
    82   41  104 1    
    83   41  105 1    
    84   42   43 am   BACKBONE|DICT|INTERRES
    85   42  106 1    
    86   43   44 2    
    87   43   45 1    
    88   45   46 1    
    89   45   49 1    
    90   45  107 1    
    91   46   47 1    
    92   46  108 1    
    93   46  109 1    
    94   47   48 1    
    95   48  110 1    
    96   48  111 1    
    97   49   50 am   BACKBONE|DICT|INTERRES
    98   49  112 1    
    99   50   51 2    
   100   50   52 1    
   101   52   53 1    
   102   52   54 1    
   103   52  113 1    
   104   53  114 1    
   105   53  115 1    
   106   53  116 1    
   107   54   55 am   BACKBONE|DICT|INTERRES
   108   54  117 1    
   109   55   56 2    
   110   55   57 1    
   111   57   58 1    
   112   57   59 1    
   113   57  118 1    
   114   58  119 1    
   115   58  120 1    
   116   58  121 1    
   117   59   60 am   BACKBONE|DICT|INTERRES
   118   59  122 1    
   119   60   61 2    
   120   60   62 1    
   121   62   63 1    
   122   62   64 1    
   123   62  123 1    
   124   63  124 1    
   125   63  125 1    
   126   63  126 1    
   127   64   65 am   BACKBONE|DICT|INTERRES
   128   64  127 1    
   129   65   66 2    
@<TRIPOS>SUBSTRUCTURE
     1 UNK         1 GROUP             0       ****    0 ROOT    
