@<TRIPOS>MOLECULE
3R135
127   129    1
SMALL
USER_CHARGES


@<TRIPOS>ATOM
      1 CA        -80.6346   29.3597  -79.0502 C.3       0 UNK        -0.1998 
      2 C         -80.6301   28.3959  -77.8738 C.2       0 UNK         0.4909 
      3 O         -79.8715   27.4274  -77.8836 O.2       0 UNK        -0.5240 
      4 N         -81.4704   28.6558  -76.8658 N.am      1 UNK        -0.4739 
      5 CA        -81.6419   27.8386  -75.6646 C.3       1 UNK         0.0864 
      6 C6        -81.4174   28.6973  -74.3921 C.3       11 UNK        -0.0881 
      7 S7        -81.3135   27.6966  -72.8720 S.3       11 UNK        -0.2682 
      8 C8        -80.5531   28.8815  -71.7140 C.3       11 UNK         0.0289 
      9 C9        -79.0702   28.6072  -71.5014 C.ar      11 UNK        -0.0687 
     10 C10       -78.6788   27.4849  -70.7656 C.ar      11 UNK        -0.0823 
     11 C11       -77.3275   27.2323  -70.5229 C.ar      11 UNK        -0.0830 
     12 C12       -76.3674   28.1152  -71.0144 C.ar      11 UNK        -0.1021 
     13 C13       -76.7320   29.2311  -71.7721 C.ar      11 UNK        -0.0753 
     14 C14       -78.0925   29.4730  -72.0088 C.ar      11 UNK        -0.0933 
     15 C15       -75.6671   30.1402  -72.3865 C.3       11 UNK         0.0166 
     16 S16       -74.4232   30.7565  -71.2024 S.3       11 UNK        -0.2615 
     17 C17       -73.0829   29.5096  -71.2967 C.3       11 UNK        -0.0865 
     18 CA        -71.9816   29.8726  -72.3277 C.3       10 UNK         0.0862 
     19 C         -70.6504   29.1068  -72.0573 C.2       10 UNK         0.5551 
     20 N         -70.0159   28.4793  -73.0414 N.am      10 UNK        -0.7319 
     21 O         -70.1693   29.0937  -70.9269 O.2       10 UNK        -0.5018 
     22 N         -72.4776   29.7068  -73.7026 N.am      10 UNK        -0.4509 
     23 C         -72.1331   30.4828  -74.7361 C.2       10 UNK         0.4899 
     24 O         -71.4163   31.4802  -74.6356 O.2       10 UNK        -0.4839 
     25 CA        -72.6761   30.0585  -76.1144 C.3       9 UNK         0.0222 
     26 CB        -72.0048   30.8108  -77.2830 C.3       9 UNK        -0.1966 
     27 N         -72.6252   28.6078  -76.3422 N.am      9 UNK        -0.4218 
     28 C         -71.5406   27.8151  -76.3140 C.2       9 UNK         0.5020 
     29 O         -70.4136   28.2236  -76.0305 O.2       9 UNK        -0.5274 
     30 CA        -71.7167   26.3121  -76.6216 C.3       8 UNK         0.0270 
     31 CB        -71.2631   25.4619  -75.4223 C.3       8 UNK        -0.1976 
     32 N         -73.0826   25.9274  -76.9860 N.am      8 UNK        -0.4313 
     33 C         -73.6770   26.1814  -78.1599 C.2       8 UNK         0.5041 
     34 O         -73.1025   26.6885  -79.1236 O.2       8 UNK        -0.5577 
     35 CA        -75.1843   25.8760  -78.2493 C.3       7 UNK         0.0284 
     36 CB        -75.4265   24.4266  -78.6986 C.3       7 UNK        -0.1958 
     37 N         -75.8912   26.1275  -76.9879 N.am      7 UNK        -0.4454 
     38 C         -75.9768   27.3237  -76.3876 C.2       7 UNK         0.5089 
     39 O         -75.5195   28.3614  -76.8645 O.2       7 UNK        -0.5125 
     40 CA        -76.6058   27.3611  -74.9894 C.3       6 UNK         0.0408 
     41 CB        -78.1336   27.3721  -75.0655 C.3       6 UNK        -0.1791 
     42 N         -76.1465   26.2519  -74.1538 N.am      6 UNK        -0.4762 
     43 C         -74.9294   26.1783  -73.5949 C.2       6 UNK         0.5007 
     44 O         -74.0871   27.0756  -73.6750 O.2       6 UNK        -0.5032 
     45 CA        -74.5677   24.8609  -72.8726 C.3       5 UNK         0.0783 
     46 C46       -74.8022   24.9212  -71.3397 C.3       11 UNK        -0.0857 
     47 S47       -76.5304   24.6010  -70.8195 S.3       11 UNK        -0.2512 
     48 C48       -76.9008   26.0092  -69.7284 C.3       11 UNK         0.0225 
     49 N         -75.2188   23.6928  -73.4713 N.am      5 UNK        -0.4615 
     50 C         -74.9733   23.2074  -74.6929 C.2       4 UNK         0.5053 
     51 O         -74.1157   23.6616  -75.4483 O.2       4 UNK        -0.5105 
     52 CA        -75.8853   22.0609  -75.1633 C.3       4 UNK         0.0263 
     53 CB        -75.3773   20.7111  -74.6328 C.3       4 UNK        -0.1981 
     54 N         -77.2868   22.2565  -74.7665 N.am      4 UNK        -0.4224 
     55 C         -78.0531   23.2589  -75.2163 C.2       3 UNK         0.4895 
     56 O         -77.6638   24.0983  -76.0318 O.2       3 UNK        -0.5091 
     57 CA        -79.4626   23.3848  -74.6280 C.3       3 UNK         0.0250 
     58 CB        -79.4141   24.1028  -73.2632 C.3       3 UNK        -0.1996 
     59 N         -80.2785   24.1329  -75.5824 N.am      3 UNK        -0.4254 
     60 C         -81.6063   24.2812  -75.5467 C.2       2 UNK         0.5004 
     61 O         -82.3333   23.8221  -74.6633 O.2       2 UNK        -0.5226 
     62 CA        -82.2389   25.0419  -76.7221 C.3       2 UNK         0.0269 
     63 CB        -82.9052   24.0550  -77.6947 C.3       2 UNK        -0.1926 
     64 N         -83.2474   25.9958  -76.2528 N.am      2 UNK        -0.4687 
     65 C         -83.0583   27.2210  -75.7370 C.2       1 UNK         0.5165 
     66 O         -84.0168   27.9036  -75.3748 O.2       1 UNK        -0.5079 
     67 H67       -81.3432   30.1755  -78.9080 H         1 UNK         0.0900 
     68 H68       -79.6429   29.7911  -79.1836 H         1 UNK         0.0900 
     69 H69       -80.9027   28.8323  -79.9652 H         1 UNK         0.0900 
     70 H70       -82.1017   29.4424  -76.9387 H         1 UNK         0.2959 
     71 H71       -80.8977   27.0453  -75.6371 H         1 UNK         0.1079 
     72 H72       -80.4818   29.2505  -74.4884 H         1 UNK         0.0837 
     73 H73       -82.1974   29.4517  -74.2727 H         1 UNK         0.0837 
     74 H74       -80.7163   29.9042  -72.0576 H         1 UNK         0.0685 
     75 H75       -81.0662   28.8034  -70.7544 H         1 UNK         0.0685 
     76 H76       -79.4304   26.8075  -70.3832 H         1 UNK         0.1434 
     77 H77       -75.3315   27.9144  -70.8105 H         1 UNK         0.1329 
     78 H78       -78.3922   30.3323  -72.5927 H         1 UNK         0.1335 
     79 H79       -75.1578   29.6126  -73.1900 H         1 UNK         0.0680 
     80 H80       -76.1404   31.0073  -72.8491 H         1 UNK         0.0680 
     81 H81       -72.6657   29.4397  -70.2904 H         1 UNK         0.1032 
     82 H82       -73.4715   28.5196  -71.5231 H         1 UNK         0.1032 
     83 H83       -71.7322   30.9237  -72.1711 H         1 UNK         0.0461 
     84 H84       -69.1539   28.0000  -72.8371 H         1 UNK         0.3453 
     85 H85       -70.3540   28.5152  -73.9957 H         1 UNK         0.3453 
     86 H86       -73.0367   28.8768  -73.8715 H         1 UNK         0.2984 
     87 H87       -73.7329   30.3285  -76.1154 H         1 UNK         0.0554 
     88 H88       -72.1441   31.8883  -77.1876 H         1 UNK         0.0847 
     89 H89       -72.4309   30.5143  -78.2414 H         1 UNK         0.0847 
     90 H90       -70.9311   30.6235  -77.3207 H         1 UNK         0.0847 
     91 H91       -73.5216   28.1872  -76.5633 H         1 UNK         0.3141 
     92 H92       -71.0643   26.0809  -77.4660 H         1 UNK         0.0743 
     93 H93       -71.8408   25.6908  -74.5272 H         1 UNK         0.0784 
     94 H94       -71.3655   24.3959  -75.6269 H         1 UNK         0.0784 
     95 H95       -70.2141   25.6450  -75.1857 H         1 UNK         0.0784 
     96 H96       -73.6101   25.4102  -76.2886 H         1 UNK         0.3213 
     97 H97       -75.6115   26.5425  -79.0016 H         1 UNK         0.0855 
     98 H98       -75.0147   23.7084  -77.9899 H         1 UNK         0.0814 
     99 H99       -74.9581   24.2357  -79.6650 H         1 UNK         0.0814 
    100 H100      -76.4911   24.2172  -78.8059 H         1 UNK         0.0814 
    101 H101      -76.3588   25.3338  -76.5551 H         1 UNK         0.3105 
    102 H102      -76.3026   28.2942  -74.5194 H         1 UNK         0.0547 
    103 H103      -78.4805   28.2593  -75.5953 H         1 UNK         0.0837 
    104 H104      -78.5240   26.5049  -75.5947 H         1 UNK         0.0837 
    105 H105      -78.5769   27.3920  -74.0717 H         1 UNK         0.0837 
    106 H106      -76.7641   25.4595  -74.0643 H         1 UNK         0.3020 
    107 H107      -73.4936   24.7337  -73.0243 H         1 UNK         0.1245 
    108 H108      -74.4371   25.8604  -70.9240 H         1 UNK         0.0781 
    109 H109      -74.1913   24.1518  -70.8651 H         1 UNK         0.0781 
    110 H110      -76.0368   26.2374  -69.1024 H         1 UNK         0.0836 
    111 H111      -77.6985   25.7175  -69.0434 H         1 UNK         0.0836 
    112 H112      -75.9419   23.2650  -72.9110 H         1 UNK         0.3022 
    113 H113      -75.8454   22.0346  -76.2544 H         1 UNK         0.0747 
    114 H114      -75.9659   19.8830  -75.0282 H         1 UNK         0.0793 
    115 H115      -74.3416   20.5409  -74.9309 H         1 UNK         0.0793 
    116 H116      -75.4153   20.6610  -73.5439 H         1 UNK         0.0793 
    117 H117      -77.6701   21.6028  -74.0982 H         1 UNK         0.3047 
    118 H118      -79.8880   22.3862  -74.5091 H         1 UNK         0.0822 
    119 H119      -78.8074   23.5458  -72.5490 H         1 UNK         0.0807 
    120 H120      -80.4058   24.2016  -72.8223 H         1 UNK         0.0807 
    121 H121      -78.9903   25.1038  -73.3418 H         1 UNK         0.0807 
    122 H122      -79.7409   24.5095  -76.3553 H         1 UNK         0.2946 
    123 H123      -81.4645   25.5665  -77.2800 H         1 UNK         0.1144 
    124 H124      -83.3354   24.5724  -78.5525 H         1 UNK         0.0793 
    125 H125      -83.7008   23.4847  -77.2129 H         1 UNK         0.0793 
    126 H126      -82.1796   23.3380  -78.0815 H         1 UNK         0.0793 
    127 H127      -84.1932   25.6437  -76.2588 H         1 UNK         0.2896 
@<TRIPOS>BOND
     1    1    2 1    
     2    1   67 1    
     3    1   68 1    
     4    1   69 1    
     5    2    3 2    
     6    2    4 am   BACKBONE|DICT|INTERRES
     7    4    5 1    
     8    4   70 1    
     9    5    6 1    
    10    5   65 1    
    11    5   71 1    
    12    6    7 1    
    13    6   72 1    
    14    6   73 1    
    15    7    8 1    
    16    8    9 1    
    17    8   74 1    
    18    8   75 1    
    19    9   10 ar   
    20    9   14 ar   
    21   10   11 ar   
    22   10   76 1    
    23   11   12 ar   
    24   11   48 1    
    25   12   13 ar   
    26   12   77 1    
    27   13   14 ar   
    28   13   15 1    
    29   14   78 1    
    30   15   16 1    
    31   15   79 1    
    32   15   80 1    
    33   16   17 1    
    34   17   18 1    
    35   17   81 1    
    36   17   82 1    
    37   18   19 1    
    38   18   22 1    
    39   18   83 1    
    40   19   20 am   BACKBONE|DICT|INTERRES
    41   19   21 2    
    42   20   84 1    
    43   20   85 1    
    44   22   23 am   BACKBONE|DICT|INTERRES
    45   22   86 1    
    46   23   24 2    
    47   23   25 1    
    48   25   26 1    
    49   25   27 1    
    50   25   87 1    
    51   26   88 1    
    52   26   89 1    
    53   26   90 1    
    54   27   28 am   BACKBONE|DICT|INTERRES
    55   27   91 1    
    56   28   29 2    
    57   28   30 1    
    58   30   31 1    
    59   30   32 1    
    60   30   92 1    
    61   31   93 1    
    62   31   94 1    
    63   31   95 1    
    64   32   33 am   BACKBONE|DICT|INTERRES
    65   32   96 1    
    66   33   34 2    
    67   33   35 1    
    68   35   36 1    
    69   35   37 1    
    70   35   97 1    
    71   36   98 1    
    72   36   99 1    
    73   36  100 1    
    74   37   38 am   BACKBONE|DICT|INTERRES
    75   37  101 1    
    76   38   39 2    
    77   38   40 1    
    78   40   41 1    
    79   40   42 1    
    80   40  102 1    
    81   41  103 1    
    82   41  104 1    
    83   41  105 1    
    84   42   43 am   BACKBONE|DICT|INTERRES
    85   42  106 1    
    86   43   44 2    
    87   43   45 1    
    88   45   46 1    
    89   45   49 1    
    90   45  107 1    
    91   46   47 1    
    92   46  108 1    
    93   46  109 1    
    94   47   48 1    
    95   48  110 1    
    96   48  111 1    
    97   49   50 am   BACKBONE|DICT|INTERRES
    98   49  112 1    
    99   50   51 2    
   100   50   52 1    
   101   52   53 1    
   102   52   54 1    
   103   52  113 1    
   104   53  114 1    
   105   53  115 1    
   106   53  116 1    
   107   54   55 am   BACKBONE|DICT|INTERRES
   108   54  117 1    
   109   55   56 2    
   110   55   57 1    
   111   57   58 1    
   112   57   59 1    
   113   57  118 1    
   114   58  119 1    
   115   58  120 1    
   116   58  121 1    
   117   59   60 am   BACKBONE|DICT|INTERRES
   118   59  122 1    
   119   60   61 2    
   120   60   62 1    
   121   62   63 1    
   122   62   64 1    
   123   62  123 1    
   124   63  124 1    
   125   63  125 1    
   126   63  126 1    
   127   64   65 am   BACKBONE|DICT|INTERRES
   128   64  127 1    
   129   65   66 2    
@<TRIPOS>SUBSTRUCTURE
     1 UNK         1 GROUP             0       ****    0 ROOT    
