@<TRIPOS>MOLECULE
3R135
127   129    1
SMALL
USER_CHARGES


@<TRIPOS>ATOM
      1 CA        -84.8034   30.4212  -74.4877 C.3       0 UNK        -0.1998 
      2 C         -83.4765   30.0000  -75.1009 C.2       0 UNK         0.4909 
      3 O         -83.2322   30.2683  -76.2775 O.2       0 UNK        -0.5240 
      4 N         -82.6171   29.3413  -74.3128 N.am      1 UNK        -0.4739 
      5 CA        -81.3060   28.8342  -74.7397 C.3       1 UNK         0.0864 
      6 C6        -80.3705   28.5788  -73.5306 C.3       11 UNK        -0.0881 
      7 S7        -81.0456   27.4039  -72.2993 S.3       11 UNK        -0.2682 
      8 C8        -80.5686   28.1872  -70.7267 C.3       11 UNK         0.0289 
      9 C9        -79.0575   28.2214  -70.5516 C.ar      11 UNK        -0.0687 
     10 C10       -78.3652   27.0651  -70.1766 C.ar      11 UNK        -0.0823 
     11 C11       -76.9739   27.0871  -70.0382 C.ar      11 UNK        -0.0830 
     12 C12       -76.2795   28.2803  -70.2567 C.ar      11 UNK        -0.1021 
     13 C13       -76.9589   29.4370  -70.6462 C.ar      11 UNK        -0.0753 
     14 C14       -78.3492   29.4055  -70.7800 C.ar      11 UNK        -0.0933 
     15 C15       -76.1886   30.7173  -70.9326 C.3       11 UNK         0.0166 
     16 S16       -76.0063   31.0318  -72.7199 S.3       11 UNK        -0.2615 
     17 C17       -74.9840   29.6302  -73.2972 C.3       11 UNK        -0.0865 
     18 CA        -73.4772   29.9916  -73.4637 C.3       10 UNK         0.0862 
     19 C         -72.5900   29.4563  -72.2983 C.2       10 UNK         0.5551 
     20 N         -71.4428   28.8368  -72.5540 N.am      10 UNK        -0.7319 
     21 O         -72.9385   29.6130  -71.1321 O.2       10 UNK        -0.5018 
     22 N         -72.9861   29.5902  -74.7903 N.am      10 UNK        -0.4509 
     23 C         -72.1753   30.3200  -75.5664 C.2       10 UNK         0.4899 
     24 O         -71.8103   31.4643  -75.2910 O.2       10 UNK        -0.4839 
     25 CA        -71.6885   29.6545  -76.8698 C.3       9 UNK         0.0222 
     26 CB        -70.4471   30.3486  -77.4699 C.3       9 UNK        -0.1966 
     27 N         -71.4599   28.2095  -76.7417 N.am      9 UNK        -0.4218 
     28 C         -70.6143   27.5865  -75.9029 C.2       9 UNK         0.5020 
     29 O         -69.9089   28.1823  -75.0874 O.2       9 UNK        -0.5274 
     30 CA        -70.5612   26.0448  -75.9460 C.3       8 UNK         0.0270 
     31 CB        -70.6002   25.4439  -74.5284 C.3       8 UNK        -0.1976 
     32 N         -71.6605   25.4768  -76.7276 N.am      8 UNK        -0.4313 
     33 C         -71.6222   25.1874  -78.0351 C.2       8 UNK         0.5041 
     34 O         -70.6060   25.2662  -78.7253 O.2       8 UNK        -0.5577 
     35 CA        -72.9545   24.7867  -78.6955 C.3       7 UNK         0.0284 
     36 CB        -73.0491   23.2601  -78.8486 C.3       7 UNK        -0.1958 
     37 N         -74.1223   25.2880  -77.9597 N.am      7 UNK        -0.4454 
     38 C         -74.4896   26.5792  -77.9269 C.2       7 UNK         0.5089 
     39 O         -73.9029   27.4650  -78.5479 O.2       7 UNK        -0.5125 
     40 CA        -75.6580   26.9652  -77.0016 C.3       6 UNK         0.0408 
     41 CB        -76.9904   26.9025  -77.7618 C.3       6 UNK        -0.1791 
     42 N         -75.7414   26.1351  -75.7976 N.am      6 UNK        -0.4762 
     43 C         -74.8039   26.0888  -74.8368 C.2       6 UNK         0.5007 
     44 O         -73.7967   26.7965  -74.8468 O.2       6 UNK        -0.5032 
     45 CA        -74.9992   25.0663  -73.6950 C.3       5 UNK         0.0783 
     46 C46       -75.6162   25.7808  -72.4691 C.3       11 UNK        -0.0857 
     47 S47       -76.1130   24.6656  -71.1099 S.3       11 UNK        -0.2512 
     48 C48       -76.2080   25.8159  -69.6959 C.3       11 UNK         0.0225 
     49 N         -75.7817   23.8959  -74.1045 N.am      5 UNK        -0.4615 
     50 C         -75.4960   23.0615  -75.1128 C.2       4 UNK         0.5053 
     51 O         -74.4808   23.1514  -75.8018 O.2       4 UNK        -0.5105 
     52 CA        -76.5422   21.9820  -75.4484 C.3       4 UNK         0.0263 
     53 CB        -76.0975   20.6190  -74.8952 C.3       4 UNK        -0.1981 
     54 N         -77.8991   22.2812  -74.9686 N.am      4 UNK        -0.4224 
     55 C         -78.6247   23.3560  -75.3097 C.2       3 UNK         0.4895 
     56 O         -78.2278   24.2431  -76.0708 O.2       3 UNK        -0.5091 
     57 CA        -79.9910   23.4869  -74.6310 C.3       3 UNK         0.0250 
     58 CB        -79.8297   23.9606  -73.1738 C.3       3 UNK        -0.1996 
     59 N         -80.7979   24.4534  -75.3680 N.am      3 UNK        -0.4254 
     60 C         -82.1291   24.4378  -75.4831 C.2       2 UNK         0.5004 
     61 O         -82.8499   23.5829  -74.9639 O.2       2 UNK        -0.5226 
     62 CA        -82.7546   25.5969  -76.2830 C.3       2 UNK         0.0269 
     63 CB        -84.2674   25.4167  -76.5110 C.3       2 UNK        -0.1926 
     64 N         -82.5305   26.8701  -75.5968 N.am      2 UNK        -0.4687 
     65 C         -81.3996   27.5882  -75.6477 C.2       1 UNK         0.5165 
     66 O         -80.4411   27.2847  -76.3593 O.2       1 UNK        -0.5079 
     67 H67       -84.9143   31.5039  -74.5411 H         1 UNK         0.0900 
     68 H68       -84.8823   30.1237  -73.4422 H         1 UNK         0.0900 
     69 H69       -85.6299   29.9665  -75.0332 H         1 UNK         0.0900 
     70 H70       -82.8642   29.1424  -73.3530 H         1 UNK         0.2959 
     71 H71       -80.8379   29.6099  -75.3505 H         1 UNK         0.1079 
     72 H72       -79.3961   28.2128  -73.8614 H         1 UNK         0.0837 
     73 H73       -80.1705   29.5323  -73.0410 H         1 UNK         0.0837 
     74 H74       -81.0165   27.6281  -69.9040 H         1 UNK         0.0685 
     75 H75       -80.9898   29.1926  -70.6776 H         1 UNK         0.0685 
     76 H76       -78.9064   26.1417  -70.0204 H         1 UNK         0.1434 
     77 H77       -75.2024   28.3026  -70.1572 H         1 UNK         0.1329 
     78 H78       -78.8753   30.3012  -71.0802 H         1 UNK         0.1335 
     79 H79       -75.2059   30.6941  -70.4616 H         1 UNK         0.0680 
     80 H80       -76.7153   31.5604  -70.4832 H         1 UNK         0.0680 
     81 H81       -75.4108   29.3274  -74.2548 H         1 UNK         0.1032 
     82 H82       -75.1246   28.7632  -72.6551 H         1 UNK         0.1032 
     83 H83       -73.3875   31.0767  -73.3932 H         1 UNK         0.0461 
     84 H84       -70.8861   28.5067  -71.7826 H         1 UNK         0.3453 
     85 H85       -71.1040   28.7215  -73.5017 H         1 UNK         0.3453 
     86 H86       -73.1908   28.6297  -75.0516 H         1 UNK         0.2984 
     87 H87       -72.5044   29.7671  -77.5850 H         1 UNK         0.0554 
     88 H88       -70.1383   29.8740  -78.4013 H         1 UNK         0.0847 
     89 H89       -69.5996   30.3250  -76.7840 H         1 UNK         0.0847 
     90 H90       -70.6532   31.3955  -77.6956 H         1 UNK         0.0847 
     91 H91       -72.0263   27.6362  -77.3545 H         1 UNK         0.3141 
     92 H92       -69.6085   25.7694  -76.4029 H         1 UNK         0.0743 
     93 H93       -71.4914   25.7517  -73.9807 H         1 UNK         0.0784 
     94 H94       -70.5831   24.3543  -74.5579 H         1 UNK         0.0784 
     95 H95       -69.7361   25.7627  -73.9442 H         1 UNK         0.0784 
     96 H96       -72.5495   25.4065  -76.2502 H         1 UNK         0.3213 
     97 H97       -72.9701   25.2269  -79.6952 H         1 UNK         0.0855 
     98 H98       -72.9685   22.7486  -77.8893 H         1 UNK         0.0814 
     99 H99       -72.2436   22.8850  -79.4813 H         1 UNK         0.0814 
    100 H100      -73.9898   22.9624  -79.3120 H         1 UNK         0.0814 
    101 H101      -74.6101   24.6210  -77.3723 H         1 UNK         0.3105 
    102 H102      -75.4981   27.9972  -76.6820 H         1 UNK         0.0547 
    103 H103      -76.9684   27.5430  -78.6444 H         1 UNK         0.0837 
    104 H104      -77.2177   25.8900  -78.0976 H         1 UNK         0.0837 
    105 H105      -77.8180   27.2398  -77.1379 H         1 UNK         0.0837 
    106 H106      -76.5411   25.5129  -75.7329 H         1 UNK         0.3020 
    107 H107      -74.0069   24.7033  -73.4187 H         1 UNK         0.1245 
    108 H108      -76.5011   26.3525  -72.7595 H         1 UNK         0.0781 
    109 H109      -74.8965   26.4990  -72.0729 H         1 UNK         0.0781 
    110 H110      -75.1956   26.0545  -69.3661 H         1 UNK         0.0836 
    111 H111      -76.6904   25.3118  -68.8573 H         1 UNK         0.0836 
    112 H112      -76.6255   23.7327  -73.5758 H         1 UNK         0.3022 
    113 H113      -76.5890   21.9119  -76.5372 H         1 UNK         0.0747 
    114 H114      -76.7732   19.8226  -75.2079 H         1 UNK         0.0793 
    115 H115      -75.1024   20.3563  -75.2577 H         1 UNK         0.0793 
    116 H116      -76.0573   20.6192  -73.8051 H         1 UNK         0.0793 
    117 H117      -78.3013   21.6133  -74.3260 H         1 UNK         0.3047 
    118 H118      -80.4795   22.5102  -74.6517 H         1 UNK         0.0822 
    119 H119      -79.2594   23.2441  -72.5816 H         1 UNK         0.0807 
    120 H120      -80.7976   24.0814  -72.6867 H         1 UNK         0.0807 
    121 H121      -79.3098   24.9184  -73.1172 H         1 UNK         0.0807 
    122 H122      -80.2689   25.1800  -75.8415 H         1 UNK         0.2946 
    123 H123      -82.2688   25.6209  -77.2615 H         1 UNK         0.1144 
    124 H124      -84.4742   24.4825  -77.0350 H         1 UNK         0.0793 
    125 H125      -84.6749   26.2247  -77.1189 H         1 UNK         0.0793 
    126 H126      -84.8198   25.3933  -75.5707 H         1 UNK         0.0793 
    127 H127      -83.2498   27.1738  -74.9567 H         1 UNK         0.2896 
@<TRIPOS>BOND
     1    1    2 1    
     2    1   67 1    
     3    1   68 1    
     4    1   69 1    
     5    2    3 2    
     6    2    4 am   BACKBONE|DICT|INTERRES
     7    4    5 1    
     8    4   70 1    
     9    5    6 1    
    10    5   65 1    
    11    5   71 1    
    12    6    7 1    
    13    6   72 1    
    14    6   73 1    
    15    7    8 1    
    16    8    9 1    
    17    8   74 1    
    18    8   75 1    
    19    9   10 ar   
    20    9   14 ar   
    21   10   11 ar   
    22   10   76 1    
    23   11   12 ar   
    24   11   48 1    
    25   12   13 ar   
    26   12   77 1    
    27   13   14 ar   
    28   13   15 1    
    29   14   78 1    
    30   15   16 1    
    31   15   79 1    
    32   15   80 1    
    33   16   17 1    
    34   17   18 1    
    35   17   81 1    
    36   17   82 1    
    37   18   19 1    
    38   18   22 1    
    39   18   83 1    
    40   19   20 am   BACKBONE|DICT|INTERRES
    41   19   21 2    
    42   20   84 1    
    43   20   85 1    
    44   22   23 am   BACKBONE|DICT|INTERRES
    45   22   86 1    
    46   23   24 2    
    47   23   25 1    
    48   25   26 1    
    49   25   27 1    
    50   25   87 1    
    51   26   88 1    
    52   26   89 1    
    53   26   90 1    
    54   27   28 am   BACKBONE|DICT|INTERRES
    55   27   91 1    
    56   28   29 2    
    57   28   30 1    
    58   30   31 1    
    59   30   32 1    
    60   30   92 1    
    61   31   93 1    
    62   31   94 1    
    63   31   95 1    
    64   32   33 am   BACKBONE|DICT|INTERRES
    65   32   96 1    
    66   33   34 2    
    67   33   35 1    
    68   35   36 1    
    69   35   37 1    
    70   35   97 1    
    71   36   98 1    
    72   36   99 1    
    73   36  100 1    
    74   37   38 am   BACKBONE|DICT|INTERRES
    75   37  101 1    
    76   38   39 2    
    77   38   40 1    
    78   40   41 1    
    79   40   42 1    
    80   40  102 1    
    81   41  103 1    
    82   41  104 1    
    83   41  105 1    
    84   42   43 am   BACKBONE|DICT|INTERRES
    85   42  106 1    
    86   43   44 2    
    87   43   45 1    
    88   45   46 1    
    89   45   49 1    
    90   45  107 1    
    91   46   47 1    
    92   46  108 1    
    93   46  109 1    
    94   47   48 1    
    95   48  110 1    
    96   48  111 1    
    97   49   50 am   BACKBONE|DICT|INTERRES
    98   49  112 1    
    99   50   51 2    
   100   50   52 1    
   101   52   53 1    
   102   52   54 1    
   103   52  113 1    
   104   53  114 1    
   105   53  115 1    
   106   53  116 1    
   107   54   55 am   BACKBONE|DICT|INTERRES
   108   54  117 1    
   109   55   56 2    
   110   55   57 1    
   111   57   58 1    
   112   57   59 1    
   113   57  118 1    
   114   58  119 1    
   115   58  120 1    
   116   58  121 1    
   117   59   60 am   BACKBONE|DICT|INTERRES
   118   59  122 1    
   119   60   61 2    
   120   60   62 1    
   121   62   63 1    
   122   62   64 1    
   123   62  123 1    
   124   63  124 1    
   125   63  125 1    
   126   63  126 1    
   127   64   65 am   BACKBONE|DICT|INTERRES
   128   64  127 1    
   129   65   66 2    
@<TRIPOS>SUBSTRUCTURE
     1 UNK         1 GROUP             0       ****    0 ROOT    
