@<TRIPOS>MOLECULE
3R135
127   129    1
SMALL
USER_CHARGES


@<TRIPOS>ATOM
      1 CA        -78.2848   30.4286  -75.9644 C.3       0 UNK        -0.1998 
      2 C         -78.7396   29.2600  -75.1032 C.2       0 UNK         0.4909 
      3 O         -78.0386   28.2537  -75.0247 O.2       0 UNK        -0.5240 
      4 N         -79.9009   29.3906  -74.4509 N.am      1 UNK        -0.4739 
      5 CA        -80.5015   28.3505  -73.6085 C.3       1 UNK         0.0864 
      6 C6        -81.5477   28.9282  -72.6202 C.3       11 UNK        -0.0881 
      7 S7        -80.9345   30.3402  -71.6365 S.3       11 UNK        -0.2682 
      8 C8        -80.4342   29.5473  -70.0763 C.3       11 UNK         0.0289 
      9 C9        -79.0962   28.8335  -70.2032 C.ar      11 UNK        -0.0687 
     10 C10       -79.0347   27.4368  -70.2108 C.ar      11 UNK        -0.0823 
     11 C11       -77.8022   26.7832  -70.3097 C.ar      11 UNK        -0.0830 
     12 C12       -76.6264   27.5367  -70.3790 C.ar      11 UNK        -0.1021 
     13 C13       -76.6740   28.9333  -70.3762 C.ar      11 UNK        -0.0753 
     14 C14       -77.9132   29.5755  -70.2891 C.ar      11 UNK        -0.0933 
     15 C15       -75.3859   29.7445  -70.4211 C.3       11 UNK         0.0166 
     16 S16       -74.4190   29.4515  -71.9392 S.3       11 UNK        -0.2615 
     17 C17       -72.9754   30.5221  -71.6137 C.3       11 UNK        -0.0865 
     18 CA        -72.7455   31.5694  -72.7351 C.3       10 UNK         0.0862 
     19 C         -71.8211   32.7213  -72.2368 C.2       10 UNK         0.5551 
     20 N         -70.6241   32.9038  -72.7820 N.am      10 UNK        -0.7319 
     21 O         -72.2036   33.4673  -71.3388 O.2       10 UNK        -0.5018 
     22 N         -72.2971   30.9280  -73.9841 N.am      10 UNK        -0.4509 
     23 C         -72.3696   31.4843  -75.2011 C.2       10 UNK         0.4899 
     24 O         -72.9097   32.5684  -75.4234 O.2       10 UNK        -0.4839 
     25 CA        -71.7017   30.7338  -76.3705 C.3       9 UNK         0.0222 
     26 CB        -70.4424   31.4846  -76.8369 C.3       9 UNK        -0.1966 
     27 N         -71.3365   29.3483  -76.0535 N.am      9 UNK        -0.4218 
     28 C         -72.1923   28.3193  -76.0720 C.2       9 UNK         0.5020 
     29 O         -73.3866   28.4274  -76.3584 O.2       9 UNK        -0.5274 
     30 CA        -71.6151   26.9545  -75.6674 C.3       8 UNK         0.0270 
     31 CB        -71.6893   26.7783  -74.1407 C.3       8 UNK        -0.1976 
     32 N         -72.3856   25.8894  -76.3053 N.am      8 UNK        -0.4313 
     33 C         -72.0278   25.2355  -77.4195 C.2       8 UNK         0.5041 
     34 O         -70.9332   25.3706  -77.9689 O.2       8 UNK        -0.5577 
     35 CA        -73.0599   24.2714  -78.0425 C.3       7 UNK         0.0284 
     36 CB        -72.8059   22.8302  -77.5722 C.3       7 UNK        -0.1958 
     37 N         -74.4423   24.6375  -77.7314 N.am      7 UNK        -0.4454 
     38 C         -75.0537   25.7508  -78.1577 C.2       7 UNK         0.5089 
     39 O         -74.5950   26.4786  -79.0393 O.2       7 UNK        -0.5125 
     40 CA        -76.3852   26.1386  -77.4828 C.3       6 UNK         0.0408 
     41 CB        -77.5468   26.0589  -78.4868 C.3       6 UNK        -0.1791 
     42 N         -76.7493   25.3706  -76.2857 N.am      6 UNK        -0.4762 
     43 C         -76.0496   25.2530  -75.1460 C.2       6 UNK         0.5007 
     44 O         -74.9161   25.7004  -74.9796 O.2       6 UNK        -0.5032 
     45 CA        -76.7215   24.4591  -74.0123 C.3       5 UNK         0.0783 
     46 C46       -77.6271   25.4055  -73.1918 C.3       11 UNK        -0.0857 
     47 S47       -78.5349   24.5784  -71.8413 S.3       11 UNK        -0.2512 
     48 C48       -77.7343   25.2624  -70.3541 C.3       11 UNK         0.0225 
     49 N         -77.4465   23.3017  -74.5446 N.am      5 UNK        -0.4615 
     50 C         -76.8729   22.1771  -74.9915 C.2       4 UNK         0.5053 
     51 O         -75.6580   21.9796  -74.9768 O.2       4 UNK        -0.5105 
     52 CA        -77.8077   21.0875  -75.5482 C.3       4 UNK         0.0263 
     53 CB        -78.2210   20.1172  -74.4298 C.3       4 UNK        -0.1981 
     54 N         -79.0104   21.6381  -76.1786 N.am      4 UNK        -0.4224 
     55 C         -79.0301   22.2388  -77.3774 C.2       3 UNK         0.4895 
     56 O         -78.0540   22.3102  -78.1242 O.2       3 UNK        -0.5091 
     57 CA        -80.3557   22.9017  -77.8037 C.3       3 UNK         0.0250 
     58 CB        -81.2233   21.9094  -78.5945 C.3       3 UNK        -0.1996 
     59 N         -81.1401   23.4607  -76.6920 N.am      3 UNK        -0.4254 
     60 C         -80.6948   24.4014  -75.8472 C.2       2 UNK         0.5004 
     61 O         -79.5580   24.8705  -75.9067 O.2       2 UNK        -0.5226 
     62 CA        -81.6488   24.8350  -74.7186 C.3       2 UNK         0.0269 
     63 CB        -81.8496   23.6903  -73.7097 C.3       2 UNK        -0.1926 
     64 N         -81.1458   26.0095  -73.9968 N.am      2 UNK        -0.4687 
     65 C         -81.1487   27.2568  -74.4857 C.2       1 UNK         0.5165 
     66 O         -81.6810   27.5653  -75.5564 O.2       1 UNK        -0.5079 
     67 H67       -77.3146   30.7888  -75.6228 H         1 UNK         0.0900 
     68 H68       -78.9884   31.2602  -75.9289 H         1 UNK         0.0900 
     69 H69       -78.1844   30.1110  -77.0019 H         1 UNK         0.0900 
     70 H70       -80.4460   30.2337  -74.5563 H         1 UNK         0.2959 
     71 H71       -79.6991   27.8915  -73.0262 H         1 UNK         0.1079 
     72 H72       -82.4288   29.2762  -73.1634 H         1 UNK         0.0837 
     73 H73       -81.9046   28.1488  -71.9443 H         1 UNK         0.0837 
     74 H74       -80.3525   30.3163  -69.3068 H         1 UNK         0.0685 
     75 H75       -81.2161   28.8653  -69.7390 H         1 UNK         0.0685 
     76 H76       -79.9442   26.8549  -70.1482 H         1 UNK         0.1434 
     77 H77       -75.6683   27.0393  -70.4477 H         1 UNK         0.1329 
     78 H78       -77.9618   30.6559  -70.2788 H         1 UNK         0.1335 
     79 H79       -75.6016   30.8114  -70.3416 H         1 UNK         0.0680 
     80 H80       -74.7786   29.4840  -69.5530 H         1 UNK         0.0680 
     81 H81       -72.0919   29.8940  -71.4874 H         1 UNK         0.1032 
     82 H82       -73.1205   31.0169  -70.6511 H         1 UNK         0.1032 
     83 H83       -73.7074   32.0437  -72.9407 H         1 UNK         0.0461 
     84 H84       -70.0402   33.6556  -72.4507 H         1 UNK         0.3453 
     85 H85       -70.2999   32.2993  -73.5186 H         1 UNK         0.3453 
     86 H86       -71.8520   30.0286  -73.8905 H         1 UNK         0.2984 
     87 H87       -72.4137   30.7280  -77.1988 H         1 UNK         0.0554 
     88 H88       -70.0001   31.0114  -77.7138 H         1 UNK         0.0847 
     89 H89       -69.6810   31.5263  -76.0573 H         1 UNK         0.0847 
     90 H90       -70.6796   32.5129  -77.1143 H         1 UNK         0.0847 
     91 H91       -70.3714   29.1772  -75.8072 H         1 UNK         0.3141 
     92 H92       -70.5691   26.9007  -75.9768 H         1 UNK         0.0743 
     93 H93       -71.0798   27.5229  -73.6277 H         1 UNK         0.0784 
     94 H94       -72.7109   26.8829  -73.7711 H         1 UNK         0.0784 
     95 H95       -71.3241   25.7970  -73.8374 H         1 UNK         0.0784 
     96 H96       -73.3343   25.7768  -75.9497 H         1 UNK         0.3213 
     97 H97       -72.9349   24.3091  -79.1268 H         1 UNK         0.0855 
     98 H98       -71.7871   22.5176  -77.8055 H         1 UNK         0.0814 
     99 H99       -73.4801   22.1276  -78.0625 H         1 UNK         0.0814 
    100 H100      -72.9408   22.7275  -76.4944 H         1 UNK         0.0814 
    101 H101      -74.9068   24.0995  -77.0136 H         1 UNK         0.3105 
    102 H102      -76.2811   27.1786  -77.1669 H         1 UNK         0.0547 
    103 H103      -77.3441   26.6613  -79.3732 H         1 UNK         0.0837 
    104 H104      -77.7190   25.0346  -78.8189 H         1 UNK         0.0837 
    105 H105      -78.4738   26.4309  -78.0492 H         1 UNK         0.0837 
    106 H106      -77.7033   25.0162  -76.2687 H         1 UNK         0.3020 
    107 H107      -75.9298   24.0918  -73.3551 H         1 UNK         0.1245 
    108 H108      -78.3667   25.8763  -73.8379 H         1 UNK         0.0781 
    109 H109      -77.0312   26.2283  -72.7962 H         1 UNK         0.0781 
    110 H110      -76.7003   24.9157  -70.3197 H         1 UNK         0.0836 
    111 H111      -78.2237   24.8551  -69.4684 H         1 UNK         0.0836 
    112 H112      -78.4431   23.4240  -74.6517 H         1 UNK         0.3022 
    113 H113      -77.2496   20.5244  -76.2996 H         1 UNK         0.0747 
    114 H114      -78.8296   19.3002  -74.8177 H         1 UNK         0.0793 
    115 H115      -77.3442   19.6704  -73.9587 H         1 UNK         0.0793 
    116 H116      -78.7905   20.6198  -73.6468 H         1 UNK         0.0793 
    117 H117      -79.8656   21.6074  -75.6433 H         1 UNK         0.3047 
    118 H118      -80.0987   23.7313  -78.4659 H         1 UNK         0.0822 
    119 H119      -82.1134   22.3929  -78.9976 H         1 UNK         0.0807 
    120 H120      -81.5460   21.0710  -77.9758 H         1 UNK         0.0807 
    121 H121      -80.6714   21.4965  -79.4403 H         1 UNK         0.0807 
    122 H122      -82.0808   23.1094  -76.5816 H         1 UNK         0.2946 
    123 H123      -82.6123   25.0879  -75.1674 H         1 UNK         0.1144 
    124 H124      -82.5035   23.9936  -72.8917 H         1 UNK         0.0793 
    125 H125      -80.9050   23.3603  -73.2763 H         1 UNK         0.0793 
    126 H126      -82.3122   22.8219  -74.1800 H         1 UNK         0.0793 
    127 H127      -80.6709   25.8246  -73.1248 H         1 UNK         0.2896 
@<TRIPOS>BOND
     1    1    2 1    
     2    1   67 1    
     3    1   68 1    
     4    1   69 1    
     5    2    3 2    
     6    2    4 am   BACKBONE|DICT|INTERRES
     7    4    5 1    
     8    4   70 1    
     9    5    6 1    
    10    5   65 1    
    11    5   71 1    
    12    6    7 1    
    13    6   72 1    
    14    6   73 1    
    15    7    8 1    
    16    8    9 1    
    17    8   74 1    
    18    8   75 1    
    19    9   10 ar   
    20    9   14 ar   
    21   10   11 ar   
    22   10   76 1    
    23   11   12 ar   
    24   11   48 1    
    25   12   13 ar   
    26   12   77 1    
    27   13   14 ar   
    28   13   15 1    
    29   14   78 1    
    30   15   16 1    
    31   15   79 1    
    32   15   80 1    
    33   16   17 1    
    34   17   18 1    
    35   17   81 1    
    36   17   82 1    
    37   18   19 1    
    38   18   22 1    
    39   18   83 1    
    40   19   20 am   BACKBONE|DICT|INTERRES
    41   19   21 2    
    42   20   84 1    
    43   20   85 1    
    44   22   23 am   BACKBONE|DICT|INTERRES
    45   22   86 1    
    46   23   24 2    
    47   23   25 1    
    48   25   26 1    
    49   25   27 1    
    50   25   87 1    
    51   26   88 1    
    52   26   89 1    
    53   26   90 1    
    54   27   28 am   BACKBONE|DICT|INTERRES
    55   27   91 1    
    56   28   29 2    
    57   28   30 1    
    58   30   31 1    
    59   30   32 1    
    60   30   92 1    
    61   31   93 1    
    62   31   94 1    
    63   31   95 1    
    64   32   33 am   BACKBONE|DICT|INTERRES
    65   32   96 1    
    66   33   34 2    
    67   33   35 1    
    68   35   36 1    
    69   35   37 1    
    70   35   97 1    
    71   36   98 1    
    72   36   99 1    
    73   36  100 1    
    74   37   38 am   BACKBONE|DICT|INTERRES
    75   37  101 1    
    76   38   39 2    
    77   38   40 1    
    78   40   41 1    
    79   40   42 1    
    80   40  102 1    
    81   41  103 1    
    82   41  104 1    
    83   41  105 1    
    84   42   43 am   BACKBONE|DICT|INTERRES
    85   42  106 1    
    86   43   44 2    
    87   43   45 1    
    88   45   46 1    
    89   45   49 1    
    90   45  107 1    
    91   46   47 1    
    92   46  108 1    
    93   46  109 1    
    94   47   48 1    
    95   48  110 1    
    96   48  111 1    
    97   49   50 am   BACKBONE|DICT|INTERRES
    98   49  112 1    
    99   50   51 2    
   100   50   52 1    
   101   52   53 1    
   102   52   54 1    
   103   52  113 1    
   104   53  114 1    
   105   53  115 1    
   106   53  116 1    
   107   54   55 am   BACKBONE|DICT|INTERRES
   108   54  117 1    
   109   55   56 2    
   110   55   57 1    
   111   57   58 1    
   112   57   59 1    
   113   57  118 1    
   114   58  119 1    
   115   58  120 1    
   116   58  121 1    
   117   59   60 am   BACKBONE|DICT|INTERRES
   118   59  122 1    
   119   60   61 2    
   120   60   62 1    
   121   62   63 1    
   122   62   64 1    
   123   62  123 1    
   124   63  124 1    
   125   63  125 1    
   126   63  126 1    
   127   64   65 am   BACKBONE|DICT|INTERRES
   128   64  127 1    
   129   65   66 2    
@<TRIPOS>SUBSTRUCTURE
     1 UNK         1 GROUP             0       ****    0 ROOT    
