@<TRIPOS>MOLECULE
3R135
127   129    1
SMALL
USER_CHARGES


@<TRIPOS>ATOM
      1 CA        -86.7540   29.1431  -74.9564 C.3       0 UNK        -0.1998 
      2 C         -85.2347   29.2119  -74.9161 C.2       0 UNK         0.4909 
      3 O         -84.6748   30.2900  -74.7144 O.2       0 UNK        -0.5240 
      4 N         -84.5639   28.0721  -75.1067 N.am      1 UNK        -0.4739 
      5 CA        -83.1097   27.9390  -75.1306 C.3       1 UNK         0.0864 
      6 C6        -82.5248   27.8162  -73.6997 C.3       11 UNK        -0.0881 
      7 S7        -80.7013   27.8768  -73.6543 S.3       11 UNK        -0.2682 
      8 C8        -80.4142   28.9480  -72.2138 C.3       11 UNK         0.0289 
      9 C9        -78.9753   28.8556  -71.7270 C.ar      11 UNK        -0.0687 
     10 C10       -78.5514   27.7193  -71.0332 C.ar      11 UNK        -0.0823 
     11 C11       -77.2467   27.6313  -70.5406 C.ar      11 UNK        -0.0830 
     12 C12       -76.3641   28.6961  -70.7347 C.ar      11 UNK        -0.1021 
     13 C13       -76.7715   29.8367  -71.4336 C.ar      11 UNK        -0.0753 
     14 C14       -78.0770   29.9077  -71.9349 C.ar      11 UNK        -0.0933 
     15 C15       -75.8160   31.0088  -71.6112 C.3       11 UNK         0.0166 
     16 S16       -74.6225   30.7239  -72.9548 S.3       11 UNK        -0.2615 
     17 C17       -73.3690   29.6778  -72.1316 C.3       11 UNK        -0.0865 
     18 CA        -71.9764   29.7883  -72.8032 C.3       10 UNK         0.0862 
     19 C         -70.9124   28.9752  -72.0217 C.2       10 UNK         0.5551 
     20 N         -70.2289   29.6041  -71.0754 N.am      10 UNK        -0.7319 
     21 O         -70.7300   27.7775  -72.2296 O.2       10 UNK        -0.5018 
     22 N         -72.0315   29.3845  -74.2129 N.am      10 UNK        -0.4509 
     23 C         -71.2712   29.9038  -75.1824 C.2       10 UNK         0.4899 
     24 O         -70.3986   30.7525  -74.9879 O.2       10 UNK        -0.4839 
     25 CA        -71.5739   29.4261  -76.6137 C.3       9 UNK         0.0222 
     26 CB        -70.5587   29.9340  -77.6613 C.3       9 UNK        -0.1966 
     27 N         -71.7647   27.9757  -76.7061 N.am      9 UNK        -0.4218 
     28 C         -70.8452   27.0137  -76.5298 C.2       9 UNK         0.5020 
     29 O         -69.6661   27.2406  -76.2537 O.2       9 UNK        -0.5274 
     30 CA        -71.2913   25.5438  -76.6955 C.3       8 UNK         0.0270 
     31 CB        -70.9690   24.7290  -75.4306 C.3       8 UNK        -0.1976 
     32 N         -72.7120   25.3793  -77.0192 N.am      8 UNK        -0.4313 
     33 C         -73.2737   25.6101  -78.2139 C.2       8 UNK         0.5041 
     34 O         -72.6348   25.9076  -79.2234 O.2       8 UNK        -0.5577 
     35 CA        -74.8122   25.5598  -78.2800 C.3       7 UNK         0.0284 
     36 CB        -75.3012   24.1355  -78.5851 C.3       7 UNK        -0.1958 
     37 N         -75.4575   26.0527  -77.0574 N.am      7 UNK        -0.4454 
     38 C         -75.3503   27.3033  -76.5849 C.2       7 UNK         0.5089 
     39 O         -74.7287   28.1978  -77.1573 O.2       7 UNK        -0.5125 
     40 CA        -75.9829   27.5875  -75.2131 C.3       6 UNK         0.0408 
     41 CB        -77.4851   27.8687  -75.3383 C.3       6 UNK        -0.1791 
     42 N         -75.7484   26.4997  -74.2601 N.am      6 UNK        -0.4762 
     43 C         -74.5436   26.2100  -73.7501 C.2       6 UNK         0.5007 
     44 O         -73.5309   26.8604  -74.0072 O.2       6 UNK        -0.5032 
     45 CA        -74.4272   24.9570  -72.8584 C.3       5 UNK         0.0783 
     46 C46       -74.7428   25.2489  -71.3646 C.3       11 UNK        -0.0857 
     47 S47       -76.4938   24.9973  -70.8921 S.3       11 UNK        -0.2512 
     48 C48       -76.8110   26.3944  -69.7738 C.3       11 UNK         0.0225 
     49 N         -75.1961   23.8253  -73.3832 N.am      5 UNK        -0.4615 
     50 C         -74.9612   23.1923  -74.5374 C.2       4 UNK         0.5053 
     51 O         -74.0091   23.4444  -75.2728 O.2       4 UNK        -0.5105 
     52 CA        -75.9962   22.1355  -74.9642 C.3       4 UNK         0.0263 
     53 CB        -75.6724   20.7757  -74.3258 C.3       4 UNK        -0.1981 
     54 N         -77.3816   22.5119  -74.6503 N.am      4 UNK        -0.4224 
     55 C         -77.9916   23.6104  -75.1170 C.2       3 UNK         0.4895 
     56 O         -77.4409   24.4318  -75.8534 O.2       3 UNK        -0.5091 
     57 CA        -79.4296   23.8631  -74.6322 C.3       3 UNK         0.0250 
     58 CB        -79.4166   24.4356  -73.2047 C.3       3 UNK        -0.1996 
     59 N         -80.1277   24.8078  -75.5062 N.am      3 UNK        -0.4254 
     60 C         -80.5459   24.5400  -76.7517 C.2       2 UNK         0.5004 
     61 O         -80.5085   23.4156  -77.2558 O.2       2 UNK        -0.5226 
     62 CA        -81.0725   25.7355  -77.5742 C.3       2 UNK         0.0269 
     63 CB        -82.0196   25.3122  -78.7186 C.3       2 UNK        -0.1926 
     64 N         -81.6680   26.7968  -76.7477 N.am      2 UNK        -0.4687 
     65 C         -82.7790   26.7139  -76.0001 C.2       1 UNK         0.5165 
     66 O         -83.5167   25.7254  -75.9549 O.2       1 UNK        -0.5079 
     67 H67       -87.1701   29.4827  -74.0083 H         1 UNK         0.0900 
     68 H68       -87.1380   29.7864  -75.7476 H         1 UNK         0.0900 
     69 H69       -87.1112   28.1298  -75.1398 H         1 UNK         0.0900 
     70 H70       -85.0545   27.2078  -75.3041 H         1 UNK         0.2959 
     71 H71       -82.6913   28.8250  -75.6144 H         1 UNK         0.1079 
     72 H72       -82.8571   26.8928  -73.2210 H         1 UNK         0.0837 
     73 H73       -82.9126   28.6276  -73.0818 H         1 UNK         0.0837 
     74 H74       -81.0817   28.6534  -71.4024 H         1 UNK         0.0685 
     75 H75       -80.6736   29.9758  -72.4724 H         1 UNK         0.0685 
     76 H76       -79.2411   26.9012  -70.8749 H         1 UNK         0.1434 
     77 H77       -75.3623   28.6409  -70.3334 H         1 UNK         0.1329 
     78 H78       -78.3998   30.7904  -72.4697 H         1 UNK         0.1335 
     79 H79       -76.3779   31.9156  -71.8397 H         1 UNK         0.0680 
     80 H80       -75.2904   31.2112  -70.6769 H         1 UNK         0.0680 
     81 H81       -73.7186   28.6456  -72.1306 H         1 UNK         0.1032 
     82 H82       -73.2978   29.9764  -71.0841 H         1 UNK         0.1032 
     83 H83       -71.6853   30.8403  -72.7615 H         1 UNK         0.0461 
     84 H84       -70.3736   30.5845  -70.8901 H         1 UNK         0.3453 
     85 H85       -69.5430   29.0906  -70.5441 H         1 UNK         0.3453 
     86 H86       -72.6559   28.6109  -74.4180 H         1 UNK         0.2984 
     87 H87       -72.5391   29.8646  -76.8702 H         1 UNK         0.0554 
     88 H88       -70.5406   31.0242  -77.6880 H         1 UNK         0.0847 
     89 H89       -70.8166   29.5909  -78.6631 H         1 UNK         0.0847 
     90 H90       -69.5439   29.6009  -77.4423 H         1 UNK         0.0847 
     91 H91       -72.7164   27.6906  -76.9095 H         1 UNK         0.3141 
     92 H92       -70.7079   25.1282  -77.5195 H         1 UNK         0.0743 
     93 H93       -69.9028   24.7608  -75.2028 H         1 UNK         0.0784 
     94 H94       -71.4980   25.1154  -74.5592 H         1 UNK         0.0784 
     95 H95       -71.2406   23.6803  -75.5523 H         1 UNK         0.0784 
     96 H96       -73.3083   25.0466  -76.2671 H         1 UNK         0.3213 
     97 H97       -75.1269   26.2100  -79.0990 H         1 UNK         0.0855 
     98 H98       -74.9951   23.4300  -77.8132 H         1 UNK         0.0814 
     99 H99       -74.8931   23.7789  -79.5316 H         1 UNK         0.0814 
    100 H100      -76.3880   24.0957  -78.6631 H         1 UNK         0.0814 
    101 H101      -76.0415   25.3942  -76.5433 H         1 UNK         0.3105 
    102 H102      -75.5127   28.4886  -74.8143 H         1 UNK         0.0547 
    103 H103      -78.0388   27.0030  -75.6998 H         1 UNK         0.0837 
    104 H104      -77.6722   28.6903  -76.0307 H         1 UNK         0.0837 
    105 H105      -77.8999   28.1595  -74.3747 H         1 UNK         0.0837 
    106 H106      -76.5278   25.8942  -74.0484 H         1 UNK         0.3020 
    107 H107      -73.3749   24.6669  -72.9086 H         1 UNK         0.1245 
    108 H108      -74.4156   26.2513  -71.0813 H         1 UNK         0.0781 
    109 H109      -74.1551   24.5716  -70.7432 H         1 UNK         0.0781 
    110 H110      -75.9287   26.5951  -69.1640 H         1 UNK         0.0836 
    111 H111      -77.6001   26.1101  -69.0761 H         1 UNK         0.0836 
    112 H112      -76.0031   23.5608  -72.8367 H         1 UNK         0.3022 
    113 H113      -75.9249   22.0272  -76.0481 H         1 UNK         0.0747 
    114 H114      -76.3372   19.9949  -74.6956 H         1 UNK         0.0793 
    115 H115      -74.6525   20.4680  -74.5617 H         1 UNK         0.0793 
    116 H116      -75.7603   20.8063  -73.2390 H         1 UNK         0.0793 
    117 H117      -77.8943   21.8894  -74.0420 H         1 UNK         0.3047 
    118 H118      -79.9746   22.9168  -74.6363 H         1 UNK         0.0822 
    119 H119      -80.4269   24.6403  -72.8496 H         1 UNK         0.0807 
    120 H120      -78.8495   25.3661  -73.1468 H         1 UNK         0.0807 
    121 H121      -78.9656   23.7355  -72.5007 H         1 UNK         0.0807 
    122 H122      -80.1958   25.7593  -75.1748 H         1 UNK         0.2946 
    123 H123      -80.1873   26.1756  -78.0367 H         1 UNK         0.1144 
    124 H124      -82.3708   26.1754  -79.2838 H         1 UNK         0.0793 
    125 H125      -82.8925   24.7743  -78.3480 H         1 UNK         0.0793 
    126 H126      -81.5104   24.6525  -79.4222 H         1 UNK         0.0793 
    127 H127      -81.1331   27.6538  -76.6997 H         1 UNK         0.2896 
@<TRIPOS>BOND
     1    1    2 1    
     2    1   67 1    
     3    1   68 1    
     4    1   69 1    
     5    2    3 2    
     6    2    4 am   BACKBONE|DICT|INTERRES
     7    4    5 1    
     8    4   70 1    
     9    5    6 1    
    10    5   65 1    
    11    5   71 1    
    12    6    7 1    
    13    6   72 1    
    14    6   73 1    
    15    7    8 1    
    16    8    9 1    
    17    8   74 1    
    18    8   75 1    
    19    9   10 ar   
    20    9   14 ar   
    21   10   11 ar   
    22   10   76 1    
    23   11   12 ar   
    24   11   48 1    
    25   12   13 ar   
    26   12   77 1    
    27   13   14 ar   
    28   13   15 1    
    29   14   78 1    
    30   15   16 1    
    31   15   79 1    
    32   15   80 1    
    33   16   17 1    
    34   17   18 1    
    35   17   81 1    
    36   17   82 1    
    37   18   19 1    
    38   18   22 1    
    39   18   83 1    
    40   19   20 am   BACKBONE|DICT|INTERRES
    41   19   21 2    
    42   20   84 1    
    43   20   85 1    
    44   22   23 am   BACKBONE|DICT|INTERRES
    45   22   86 1    
    46   23   24 2    
    47   23   25 1    
    48   25   26 1    
    49   25   27 1    
    50   25   87 1    
    51   26   88 1    
    52   26   89 1    
    53   26   90 1    
    54   27   28 am   BACKBONE|DICT|INTERRES
    55   27   91 1    
    56   28   29 2    
    57   28   30 1    
    58   30   31 1    
    59   30   32 1    
    60   30   92 1    
    61   31   93 1    
    62   31   94 1    
    63   31   95 1    
    64   32   33 am   BACKBONE|DICT|INTERRES
    65   32   96 1    
    66   33   34 2    
    67   33   35 1    
    68   35   36 1    
    69   35   37 1    
    70   35   97 1    
    71   36   98 1    
    72   36   99 1    
    73   36  100 1    
    74   37   38 am   BACKBONE|DICT|INTERRES
    75   37  101 1    
    76   38   39 2    
    77   38   40 1    
    78   40   41 1    
    79   40   42 1    
    80   40  102 1    
    81   41  103 1    
    82   41  104 1    
    83   41  105 1    
    84   42   43 am   BACKBONE|DICT|INTERRES
    85   42  106 1    
    86   43   44 2    
    87   43   45 1    
    88   45   46 1    
    89   45   49 1    
    90   45  107 1    
    91   46   47 1    
    92   46  108 1    
    93   46  109 1    
    94   47   48 1    
    95   48  110 1    
    96   48  111 1    
    97   49   50 am   BACKBONE|DICT|INTERRES
    98   49  112 1    
    99   50   51 2    
   100   50   52 1    
   101   52   53 1    
   102   52   54 1    
   103   52  113 1    
   104   53  114 1    
   105   53  115 1    
   106   53  116 1    
   107   54   55 am   BACKBONE|DICT|INTERRES
   108   54  117 1    
   109   55   56 2    
   110   55   57 1    
   111   57   58 1    
   112   57   59 1    
   113   57  118 1    
   114   58  119 1    
   115   58  120 1    
   116   58  121 1    
   117   59   60 am   BACKBONE|DICT|INTERRES
   118   59  122 1    
   119   60   61 2    
   120   60   62 1    
   121   62   63 1    
   122   62   64 1    
   123   62  123 1    
   124   63  124 1    
   125   63  125 1    
   126   63  126 1    
   127   64   65 am   BACKBONE|DICT|INTERRES
   128   64  127 1    
   129   65   66 2    
@<TRIPOS>SUBSTRUCTURE
     1 UNK         1 GROUP             0       ****    0 ROOT    
