@<TRIPOS>MOLECULE
3R135
127   129    1
SMALL
USER_CHARGES


@<TRIPOS>ATOM
      1 CA        -80.8578   29.7680  -76.4662 C.3       0 UNK        -0.1998 
      2 C         -80.5412   28.8367  -75.3065 C.2       0 UNK         0.4909 
      3 O         -79.4878   28.2026  -75.3016 O.2       0 UNK        -0.5240 
      4 N         -81.4476   28.7374  -74.3265 N.am      1 UNK        -0.4739 
      5 CA        -81.3080   27.8945  -73.1322 C.3       1 UNK         0.0864 
      6 C6        -82.0112   28.5141  -71.8938 C.3       11 UNK        -0.0881 
      7 S7        -81.4774   30.2261  -71.5339 S.3       11 UNK        -0.2682 
      8 C8        -80.3545   30.0149  -70.1144 C.3       11 UNK         0.0289 
      9 C9        -78.9854   29.5072  -70.5427 C.ar      11 UNK        -0.0687 
     10 C10       -78.6492   28.1602  -70.3806 C.ar      11 UNK        -0.0823 
     11 C11       -77.3987   27.6893  -70.7911 C.ar      11 UNK        -0.0830 
     12 C12       -76.4745   28.5785  -71.3489 C.ar      11 UNK        -0.1021 
     13 C13       -76.7963   29.9280  -71.5114 C.ar      11 UNK        -0.0753 
     14 C14       -78.0525   30.3880  -71.1020 C.ar      11 UNK        -0.0933 
     15 C15       -75.7947   30.8742  -72.1584 C.3       11 UNK         0.0166 
     16 S16       -74.3760   31.1902  -71.0645 S.3       11 UNK        -0.2615 
     17 C17       -73.4348   32.4226  -72.0329 C.3       11 UNK        -0.0865 
     18 CA        -72.1051   31.9360  -72.6902 C.3       10 UNK         0.0862 
     19 C         -71.0019   31.3822  -71.7339 C.2       10 UNK         0.5551 
     20 N         -71.0986   31.6071  -70.4303 N.am      10 UNK        -0.7319 
     21 O         -70.0062   30.8148  -72.1798 O.2       10 UNK        -0.5018 
     22 N         -72.3155   31.1577  -73.9237 N.am      10 UNK        -0.4509 
     23 C         -72.5306   29.8400  -74.0444 C.2       10 UNK         0.4899 
     24 O         -72.6487   29.0639  -73.0938 O.2       10 UNK        -0.4839 
     25 CA        -72.6899   29.3210  -75.4905 C.3       9 UNK         0.0222 
     26 CB        -71.7397   30.0007  -76.5035 C.3       9 UNK        -0.1966 
     27 N         -72.6019   27.8601  -75.5803 N.am      9 UNK        -0.4218 
     28 C         -71.5322   27.0782  -75.3749 C.2       9 UNK         0.5020 
     29 O         -70.3945   27.4966  -75.1528 O.2       9 UNK        -0.5274 
     30 CA        -71.7706   25.5574  -75.4230 C.3       8 UNK         0.0270 
     31 CB        -72.2411   25.0470  -74.0510 C.3       8 UNK        -0.1976 
     32 N         -72.7275   25.1393  -76.4536 N.am      8 UNK        -0.4313 
     33 C         -72.4998   25.1934  -77.7742 C.2       8 UNK         0.5041 
     34 O         -71.4464   25.5936  -78.2719 O.2       8 UNK        -0.5577 
     35 CA        -73.6336   24.7178  -78.7012 C.3       7 UNK         0.0284 
     36 CB        -73.6785   23.1830  -78.7799 C.3       7 UNK        -0.1958 
     37 N         -74.9414   25.2313  -78.2915 N.am      7 UNK        -0.4454 
     38 C         -75.3231   26.5103  -78.4196 C.2       7 UNK         0.5089 
     39 O         -74.6534   27.3739  -78.9869 O.2       7 UNK        -0.5125 
     40 CA        -76.6667   26.9026  -77.7797 C.3       6 UNK         0.0408 
     41 CB        -77.8282   26.6793  -78.7598 C.3       6 UNK        -0.1791 
     42 N         -76.9363   26.1865  -76.5316 N.am      6 UNK        -0.4762 
     43 C         -76.1903   26.2813  -75.4222 C.2       6 UNK         0.5007 
     44 O         -75.2059   27.0094  -75.3234 O.2       6 UNK        -0.5032 
     45 CA        -76.5718   25.3798  -74.2360 C.3       5 UNK         0.0783 
     46 C46       -77.7234   26.0185  -73.4392 C.3       11 UNK        -0.0857 
     47 S47       -78.0395   25.1954  -71.8428 S.3       11 UNK        -0.2512 
     48 C48       -77.0607   26.2093  -70.6843 C.3       11 UNK         0.0225 
     49 N         -76.8879   24.0186  -74.6729 N.am      5 UNK        -0.4615 
     50 C         -76.0140   23.1758  -75.2365 C.2       4 UNK         0.5053 
     51 O         -74.8266   23.4425  -75.4166 O.2       4 UNK        -0.5105 
     52 CA        -76.5717   21.8260  -75.7152 C.3       4 UNK         0.0263 
     53 CB        -76.6265   20.8214  -74.5536 C.3       4 UNK        -0.1981 
     54 N         -77.9008   21.9548  -76.3198 N.am      4 UNK        -0.4224 
     55 C         -78.1436   22.5785  -77.4823 C.2       3 UNK         0.4895 
     56 O         -77.2648   23.0646  -78.1956 O.2       3 UNK        -0.5091 
     57 CA        -79.6224   22.7218  -77.8909 C.3       3 UNK         0.0250 
     58 CB        -80.1318   21.4314  -78.5529 C.3       3 UNK        -0.1996 
     59 N         -80.5046   23.0899  -76.7734 N.am      3 UNK        -0.4254 
     60 C         -80.3891   24.2294  -76.0775 C.2       2 UNK         0.5004 
     61 O         -79.5301   25.0791  -76.3210 O.2       2 UNK        -0.5226 
     62 CA        -81.3453   24.4429  -74.8934 C.3       2 UNK         0.0269 
     63 CB        -81.0482   23.4195  -73.7758 C.3       2 UNK        -0.1926 
     64 N         -81.1504   25.8117  -74.4123 N.am      2 UNK        -0.4687 
     65 C         -81.7977   26.4586  -73.4378 C.2       1 UNK         0.5165 
     66 O         -82.7521   25.9808  -72.8216 O.2       1 UNK        -0.5079 
     67 H67       -81.8213   30.2617  -76.3418 H         1 UNK         0.0900 
     68 H68       -80.0899   30.5365  -76.5483 H         1 UNK         0.0900 
     69 H69       -80.8801   29.2071  -77.4001 H         1 UNK         0.0900 
     70 H70       -82.3036   29.2706  -74.3831 H         1 UNK         0.2959 
     71 H71       -80.2470   27.8128  -72.8834 H         1 UNK         0.1079 
     72 H72       -81.8442   27.8922  -71.0125 H         1 UNK         0.0837 
     73 H73       -83.0923   28.5358  -72.0436 H         1 UNK         0.0837 
     74 H74       -80.8073   29.3494  -69.3778 H         1 UNK         0.0685 
     75 H75       -80.2381   30.9790  -69.6171 H         1 UNK         0.0685 
     76 H76       -79.3676   27.4704  -69.9588 H         1 UNK         0.1434 
     77 H77       -75.5080   28.2215  -71.6799 H         1 UNK         0.1329 
     78 H78       -78.3135   31.4295  -71.2310 H         1 UNK         0.1335 
     79 H79       -76.2737   31.8211  -72.4121 H         1 UNK         0.0680 
     80 H80       -75.4400   30.4420  -73.0953 H         1 UNK         0.0680 
     81 H81       -73.2214   33.2608  -71.3677 H         1 UNK         0.1032 
     82 H82       -74.0826   32.8452  -72.8022 H         1 UNK         0.1032 
     83 H83       -71.6388   32.8468  -73.0681 H         1 UNK         0.0461 
     84 H84       -70.3701   31.2753  -69.8180 H         1 UNK         0.3453 
     85 H85       -71.9184   32.0494  -70.0453 H         1 UNK         0.3453 
     86 H86       -72.2213   31.6889  -74.7765 H         1 UNK         0.2984 
     87 H87       -73.7120   29.5623  -75.7858 H         1 UNK         0.0554 
     88 H88       -71.9855   31.0538  -76.6406 H         1 UNK         0.0847 
     89 H89       -71.8110   29.5316  -77.4852 H         1 UNK         0.0847 
     90 H90       -70.6984   29.9450  -76.1841 H         1 UNK         0.0847 
     91 H91       -73.5089   27.3985  -75.6480 H         1 UNK         0.3141 
     92 H92       -70.8136   25.0820  -75.6486 H         1 UNK         0.0743 
     93 H93       -71.5275   25.3136  -73.2701 H         1 UNK         0.0784 
     94 H94       -73.2041   25.4753  -73.7716 H         1 UNK         0.0784 
     95 H95       -72.3414   23.9614  -74.0432 H         1 UNK         0.0784 
     96 H96       -73.5970   24.7242  -76.1269 H         1 UNK         0.3213 
     97 H97       -73.4220   25.0970  -79.7036 H         1 UNK         0.0855 
     98 H98       -73.8869   22.7295  -77.8109 H         1 UNK         0.0814 
     99 H99       -72.7247   22.7838  -79.1273 H         1 UNK         0.0814 
    100 H100      -74.4455   22.8447  -79.4770 H         1 UNK         0.0814 
    101 H101      -75.5819   24.5793  -77.8547 H         1 UNK         0.3105 
    102 H102      -76.6230   27.9677  -77.5430 H         1 UNK         0.0547 
    103 H103      -77.6668   27.2267  -79.6892 H         1 UNK         0.0837 
    104 H104      -78.7717   27.0257  -78.3370 H         1 UNK         0.0837 
    105 H105      -77.9439   25.6255  -79.0149 H         1 UNK         0.0837 
    106 H106      -77.7874   25.6269  -76.5018 H         1 UNK         0.3020 
    107 H107      -75.6962   25.3245  -73.5857 H         1 UNK         0.1245 
    108 H108      -78.6359   25.9663  -74.0226 H         1 UNK         0.0781 
    109 H109      -77.5544   27.0844  -73.2939 H         1 UNK         0.0781 
    110 H110      -75.9998   26.0390  -70.8740 H         1 UNK         0.0836 
    111 H111      -77.2478   25.8669  -69.6656 H         1 UNK         0.0836 
    112 H112      -77.8495   23.7323  -74.5794 H         1 UNK         0.3022 
    113 H113      -75.8895   21.4357  -76.4738 H         1 UNK         0.0747 
    114 H114      -76.9497   19.8378  -74.8949 H         1 UNK         0.0793 
    115 H115      -75.6418   20.6976  -74.1003 H         1 UNK         0.0793 
    116 H116      -77.3087   21.1457  -73.7666 H         1 UNK         0.0793 
    117 H117      -78.6813   21.5759  -75.8038 H         1 UNK         0.3047 
    118 H118      -79.6763   23.5247  -78.6297 H         1 UNK         0.0822 
    119 H119      -81.1430   21.5569  -78.9402 H         1 UNK         0.0807 
    120 H120      -80.1404   20.5922  -77.8562 H         1 UNK         0.0807 
    121 H121      -79.4979   21.1493  -79.3950 H         1 UNK         0.0807 
    122 H122      -81.2309   22.4322  -76.5275 H         1 UNK         0.2946 
    123 H123      -82.3733   24.3340  -75.2444 H         1 UNK         0.1144 
    124 H124      -80.0283   23.5143  -73.4032 H         1 UNK         0.0793 
    125 H125      -81.1726   22.3955  -74.1294 H         1 UNK         0.0793 
    126 H126      -81.7220   23.5386  -72.9278 H         1 UNK         0.0793 
    127 H127      -80.4172   26.3103  -74.9132 H         1 UNK         0.2896 
@<TRIPOS>BOND
     1    1    2 1    
     2    1   67 1    
     3    1   68 1    
     4    1   69 1    
     5    2    3 2    
     6    2    4 am   BACKBONE|DICT|INTERRES
     7    4    5 1    
     8    4   70 1    
     9    5    6 1    
    10    5   65 1    
    11    5   71 1    
    12    6    7 1    
    13    6   72 1    
    14    6   73 1    
    15    7    8 1    
    16    8    9 1    
    17    8   74 1    
    18    8   75 1    
    19    9   10 ar   
    20    9   14 ar   
    21   10   11 ar   
    22   10   76 1    
    23   11   12 ar   
    24   11   48 1    
    25   12   13 ar   
    26   12   77 1    
    27   13   14 ar   
    28   13   15 1    
    29   14   78 1    
    30   15   16 1    
    31   15   79 1    
    32   15   80 1    
    33   16   17 1    
    34   17   18 1    
    35   17   81 1    
    36   17   82 1    
    37   18   19 1    
    38   18   22 1    
    39   18   83 1    
    40   19   20 am   BACKBONE|DICT|INTERRES
    41   19   21 2    
    42   20   84 1    
    43   20   85 1    
    44   22   23 am   BACKBONE|DICT|INTERRES
    45   22   86 1    
    46   23   24 2    
    47   23   25 1    
    48   25   26 1    
    49   25   27 1    
    50   25   87 1    
    51   26   88 1    
    52   26   89 1    
    53   26   90 1    
    54   27   28 am   BACKBONE|DICT|INTERRES
    55   27   91 1    
    56   28   29 2    
    57   28   30 1    
    58   30   31 1    
    59   30   32 1    
    60   30   92 1    
    61   31   93 1    
    62   31   94 1    
    63   31   95 1    
    64   32   33 am   BACKBONE|DICT|INTERRES
    65   32   96 1    
    66   33   34 2    
    67   33   35 1    
    68   35   36 1    
    69   35   37 1    
    70   35   97 1    
    71   36   98 1    
    72   36   99 1    
    73   36  100 1    
    74   37   38 am   BACKBONE|DICT|INTERRES
    75   37  101 1    
    76   38   39 2    
    77   38   40 1    
    78   40   41 1    
    79   40   42 1    
    80   40  102 1    
    81   41  103 1    
    82   41  104 1    
    83   41  105 1    
    84   42   43 am   BACKBONE|DICT|INTERRES
    85   42  106 1    
    86   43   44 2    
    87   43   45 1    
    88   45   46 1    
    89   45   49 1    
    90   45  107 1    
    91   46   47 1    
    92   46  108 1    
    93   46  109 1    
    94   47   48 1    
    95   48  110 1    
    96   48  111 1    
    97   49   50 am   BACKBONE|DICT|INTERRES
    98   49  112 1    
    99   50   51 2    
   100   50   52 1    
   101   52   53 1    
   102   52   54 1    
   103   52  113 1    
   104   53  114 1    
   105   53  115 1    
   106   53  116 1    
   107   54   55 am   BACKBONE|DICT|INTERRES
   108   54  117 1    
   109   55   56 2    
   110   55   57 1    
   111   57   58 1    
   112   57   59 1    
   113   57  118 1    
   114   58  119 1    
   115   58  120 1    
   116   58  121 1    
   117   59   60 am   BACKBONE|DICT|INTERRES
   118   59  122 1    
   119   60   61 2    
   120   60   62 1    
   121   62   63 1    
   122   62   64 1    
   123   62  123 1    
   124   63  124 1    
   125   63  125 1    
   126   63  126 1    
   127   64   65 am   BACKBONE|DICT|INTERRES
   128   64  127 1    
   129   65   66 2    
@<TRIPOS>SUBSTRUCTURE
     1 UNK         1 GROUP             0       ****    0 ROOT    
