@<TRIPOS>MOLECULE
3R135
127   129    1
SMALL
USER_CHARGES


@<TRIPOS>ATOM
      1 CA        -84.1202   29.1671  -77.5151 C.3       0 UNK        -0.1998 
      2 C         -84.3104   28.7190  -76.0685 C.2       0 UNK         0.4909 
      3 O         -85.4422   28.4682  -75.6590 O.2       0 UNK        -0.5240 
      4 N         -83.2510   28.6061  -75.2538 N.am      1 UNK        -0.4739 
      5 CA        -81.8342   28.8135  -75.5908 C.3       1 UNK         0.0864 
      6 C6        -80.9846   29.0454  -74.3155 C.3       11 UNK        -0.0881 
      7 S7        -81.0397   27.6500  -73.1348 S.3       11 UNK        -0.2682 
      8 C8        -80.6509   28.4769  -71.5620 C.3       11 UNK         0.0289 
      9 C9        -79.1604   28.4530  -71.2540 C.ar      11 UNK        -0.0687 
     10 C10       -78.5974   27.3204  -70.6600 C.ar      11 UNK        -0.0823 
     11 C11       -77.2482   27.3027  -70.2972 C.ar      11 UNK        -0.0830 
     12 C12       -76.4590   28.4306  -70.5301 C.ar      11 UNK        -0.1021 
     13 C13       -77.0022   29.5654  -71.1416 C.ar      11 UNK        -0.0753 
     14 C14       -78.3542   29.5682  -71.5077 C.ar      11 UNK        -0.0933 
     15 C15       -76.1435   30.8065  -71.3534 C.3       11 UNK         0.0166 
     16 S16       -75.0163   30.6427  -72.7745 S.3       11 UNK        -0.2615 
     17 C17       -73.6849   29.6003  -72.0789 C.3       11 UNK        -0.0865 
     18 CA        -72.3243   29.7791  -72.8038 C.3       10 UNK         0.0862 
     19 C         -71.1894   28.9663  -72.1125 C.2       10 UNK         0.5551 
     20 N         -70.3889   28.1830  -72.8278 N.am      10 UNK        -0.7319 
     21 O         -71.0204   29.0597  -70.8992 O.2       10 UNK        -0.5018 
     22 N         -72.4365   29.5058  -74.2439 N.am      10 UNK        -0.4509 
     23 C         -71.7878   30.1791  -75.2003 C.2       10 UNK         0.4899 
     24 O         -71.0504   31.1418  -74.9793 O.2       10 UNK        -0.4839 
     25 CA        -72.0056   29.6981  -76.6468 C.3       9 UNK         0.0222 
     26 CB        -70.9515   30.2495  -77.6311 C.3       9 UNK        -0.1966 
     27 N         -72.1196   28.2401  -76.7712 N.am      9 UNK        -0.4218 
     28 C         -71.1942   27.3156  -76.4677 C.2       9 UNK         0.5020 
     29 O         -70.1088   27.5933  -75.9543 O.2       9 UNK        -0.5274 
     30 CA        -71.5164   25.8346  -76.7736 C.3       8 UNK         0.0270 
     31 CB        -71.0624   24.9110  -75.6285 C.3       8 UNK        -0.1976 
     32 N         -72.9332   25.5841  -77.0523 N.am      8 UNK        -0.4313 
     33 C         -73.5596   25.8131  -78.2144 C.2       8 UNK         0.5041 
     34 O         -72.9851   26.1745  -79.2414 O.2       8 UNK        -0.5577 
     35 CA        -75.0953   25.6913  -78.2088 C.3       7 UNK         0.0284 
     36 CB        -75.5342   24.2603  -78.5556 C.3       7 UNK        -0.1958 
     37 N         -75.6927   26.0972  -76.9313 N.am      7 UNK        -0.4454 
     38 C         -75.6158   27.3286  -76.4059 C.2       7 UNK         0.5089 
     39 O         -75.0922   28.2827  -76.9807 O.2       7 UNK        -0.5125 
     40 CA        -76.1476   27.5125  -74.9757 C.3       6 UNK         0.0408 
     41 CB        -77.6612   27.7434  -74.9715 C.3       6 UNK        -0.1791 
     42 N         -75.8140   26.3841  -74.1053 N.am      6 UNK        -0.4762 
     43 C         -74.5742   26.1084  -73.6807 C.2       6 UNK         0.5007 
     44 O         -73.5940   26.7987  -73.9604 O.2       6 UNK        -0.5032 
     45 CA        -74.3806   24.8225  -72.8530 C.3       5 UNK         0.0783 
     46 C46       -74.6334   25.0469  -71.3355 C.3       11 UNK        -0.0857 
     47 S47       -76.3556   24.7340  -70.7969 S.3       11 UNK        -0.2512 
     48 C48       -76.6641   26.0778  -69.6130 C.3       11 UNK         0.0225 
     49 N         -75.1521   23.6978  -73.3892 N.am      5 UNK        -0.4615 
     50 C         -74.9769   23.1329  -74.5885 C.2       4 UNK         0.5053 
     51 O         -74.0725   23.4402  -75.3627 O.2       4 UNK        -0.5105 
     52 CA        -76.0233   22.0857  -75.0107 C.3       4 UNK         0.0263 
     53 CB        -75.6449   20.6975  -74.4715 C.3       4 UNK        -0.1981 
     54 N         -77.3912   22.4236  -74.5914 N.am      4 UNK        -0.4224 
     55 C         -78.0505   23.5250  -74.9784 C.2       3 UNK         0.4895 
     56 O         -77.5622   24.3838  -75.7138 O.2       3 UNK        -0.5091 
     57 CA        -79.4626   23.7292  -74.4008 C.3       3 UNK         0.0250 
     58 CB        -79.3750   24.3551  -72.9992 C.3       3 UNK        -0.1996 
     59 N         -80.2952   24.5893  -75.2485 N.am      3 UNK        -0.4254 
     60 C         -80.7088   24.2802  -76.4867 C.2       2 UNK         0.5004 
     61 O         -80.4806   23.1953  -77.0253 O.2       2 UNK        -0.5226 
     62 CA        -81.5353   25.3321  -77.2531 C.3       2 UNK         0.0269 
     63 CB        -82.8412   24.7218  -77.7969 C.3       2 UNK        -0.1926 
     64 N         -81.8792   26.5023  -76.4392 N.am      2 UNK        -0.4687 
     65 C         -81.2502   27.6856  -76.4733 C.2       1 UNK         0.5165 
     66 O         -80.2682   27.9166  -77.1780 O.2       1 UNK        -0.5079 
     67 H67       -85.0855   29.3154  -77.9966 H         1 UNK         0.0900 
     68 H68       -83.5802   28.4177  -78.0895 H         1 UNK         0.0900 
     69 H69       -83.5825   30.1109  -77.5689 H         1 UNK         0.0900 
     70 H70       -83.4120   28.3152  -74.2994 H         1 UNK         0.2959 
     71 H71       -81.7610   29.7280  -76.1823 H         1 UNK         0.1079 
     72 H72       -79.9486   29.2637  -74.5716 H         1 UNK         0.0837 
     73 H73       -81.3486   29.9432  -73.8140 H         1 UNK         0.0837 
     74 H74       -81.1887   27.9630  -70.7638 H         1 UNK         0.0685 
     75 H75       -81.0298   29.4997  -71.5618 H         1 UNK         0.0685 
     76 H76       -79.2157   26.4546  -70.4646 H         1 UNK         0.1434 
     77 H77       -75.4243   28.4289  -70.2198 H         1 UNK         0.1329 
     78 H78       -78.7866   30.4479  -71.9644 H         1 UNK         0.1335 
     79 H79       -76.7808   31.6757  -71.5228 H         1 UNK         0.0680 
     80 H80       -75.5745   31.0260  -70.4489 H         1 UNK         0.0680 
     81 H81       -73.5730   29.8472  -71.0217 H         1 UNK         0.1032 
     82 H82       -74.0037   28.5597  -72.1155 H         1 UNK         0.1032 
     83 H83       -72.0421   30.8254  -72.6733 H         1 UNK         0.0461 
     84 H84       -70.4953   28.1107  -73.8312 H         1 UNK         0.3453 
     85 H85       -69.6569   27.6711  -72.3625 H         1 UNK         0.3453 
     86 H86       -72.9719   28.6788  -74.4856 H         1 UNK         0.2984 
     87 H87       -72.9735   30.0996  -76.9497 H         1 UNK         0.0554 
     88 H88       -71.1451   29.9131  -78.6496 H         1 UNK         0.0847 
     89 H89       -69.9424   29.9372  -77.3602 H         1 UNK         0.0847 
     90 H90       -70.9608   31.3401  -77.6452 H         1 UNK         0.0847 
     91 H91       -73.0149   27.9185  -77.1215 H         1 UNK         0.3141 
     92 H92       -70.9414   25.5677  -77.6625 H         1 UNK         0.0743 
     93 H93       -69.9870   24.9865  -75.4630 H         1 UNK         0.0784 
     94 H94       -71.5543   25.1638  -74.6893 H         1 UNK         0.0784 
     95 H95       -71.2805   23.8661  -75.8503 H         1 UNK         0.0784 
     96 H96       -73.4819   25.2161  -76.2819 H         1 UNK         0.3213 
     97 H97       -75.4825   26.3626  -78.9782 H         1 UNK         0.0855 
     98 H98       -75.1670   23.9695  -79.5406 H         1 UNK         0.0814 
     99 H99       -76.6206   24.1703  -78.5731 H         1 UNK         0.0814 
    100 H100      -75.1497   23.5351  -77.8390 H         1 UNK         0.0814 
    101 H101      -76.2158   25.3895  -76.4166 H         1 UNK         0.3105 
    102 H102      -75.6756   28.4048  -74.5621 H         1 UNK         0.0547 
    103 H103      -78.0235   27.9275  -73.9607 H         1 UNK         0.0837 
    104 H104      -77.9157   28.6133  -75.5777 H         1 UNK         0.0837 
    105 H105      -78.2105   26.8944  -75.3774 H         1 UNK         0.0837 
    106 H106      -76.5603   25.7443  -73.8764 H         1 UNK         0.3020 
    107 H107      -73.3260   24.5606  -72.9671 H         1 UNK         0.1245 
    108 H108      -74.3167   26.0449  -71.0255 H         1 UNK         0.0781 
    109 H109      -74.0030   24.3595  -70.7695 H         1 UNK         0.0781 
    110 H110      -75.7478   26.3230  -69.0738 H         1 UNK         0.0836 
    111 H111      -77.3679   25.7214  -68.8595 H         1 UNK         0.0836 
    112 H112      -75.9211   23.3884  -72.8123 H         1 UNK         0.3022 
    113 H113      -76.0175   22.0392  -76.1014 H         1 UNK         0.0747 
    114 H114      -76.3225   19.9287  -74.8434 H         1 UNK         0.0793 
    115 H115      -74.6382   20.4186  -74.7867 H         1 UNK         0.0793 
    116 H116      -75.6655   20.6659  -73.3814 H         1 UNK         0.0793 
    117 H117      -77.8527   21.7679  -73.9770 H         1 UNK         0.3047 
    118 H118      -79.9521   22.7559  -74.3263 H         1 UNK         0.0822 
    119 H119      -78.8256   23.7100  -72.3130 H         1 UNK         0.0807 
    120 H120      -80.3648   24.5086  -72.5689 H         1 UNK         0.0807 
    121 H121      -78.8669   25.3205  -73.0178 H         1 UNK         0.0807 
    122 H122      -80.5150   25.5068  -74.8890 H         1 UNK         0.2946 
    123 H123      -80.9266   25.6414  -78.1068 H         1 UNK         0.1144 
    124 H124      -82.6375   23.8820  -78.4628 H         1 UNK         0.0793 
    125 H125      -83.4111   25.4531  -78.3711 H         1 UNK         0.0793 
    126 H126      -83.4806   24.3534  -76.9929 H         1 UNK         0.0793 
    127 H127      -82.6686   26.4047  -75.8152 H         1 UNK         0.2896 
@<TRIPOS>BOND
     1    1    2 1    
     2    1   67 1    
     3    1   68 1    
     4    1   69 1    
     5    2    3 2    
     6    2    4 am   BACKBONE|DICT|INTERRES
     7    4    5 1    
     8    4   70 1    
     9    5    6 1    
    10    5   65 1    
    11    5   71 1    
    12    6    7 1    
    13    6   72 1    
    14    6   73 1    
    15    7    8 1    
    16    8    9 1    
    17    8   74 1    
    18    8   75 1    
    19    9   10 ar   
    20    9   14 ar   
    21   10   11 ar   
    22   10   76 1    
    23   11   12 ar   
    24   11   48 1    
    25   12   13 ar   
    26   12   77 1    
    27   13   14 ar   
    28   13   15 1    
    29   14   78 1    
    30   15   16 1    
    31   15   79 1    
    32   15   80 1    
    33   16   17 1    
    34   17   18 1    
    35   17   81 1    
    36   17   82 1    
    37   18   19 1    
    38   18   22 1    
    39   18   83 1    
    40   19   20 am   BACKBONE|DICT|INTERRES
    41   19   21 2    
    42   20   84 1    
    43   20   85 1    
    44   22   23 am   BACKBONE|DICT|INTERRES
    45   22   86 1    
    46   23   24 2    
    47   23   25 1    
    48   25   26 1    
    49   25   27 1    
    50   25   87 1    
    51   26   88 1    
    52   26   89 1    
    53   26   90 1    
    54   27   28 am   BACKBONE|DICT|INTERRES
    55   27   91 1    
    56   28   29 2    
    57   28   30 1    
    58   30   31 1    
    59   30   32 1    
    60   30   92 1    
    61   31   93 1    
    62   31   94 1    
    63   31   95 1    
    64   32   33 am   BACKBONE|DICT|INTERRES
    65   32   96 1    
    66   33   34 2    
    67   33   35 1    
    68   35   36 1    
    69   35   37 1    
    70   35   97 1    
    71   36   98 1    
    72   36   99 1    
    73   36  100 1    
    74   37   38 am   BACKBONE|DICT|INTERRES
    75   37  101 1    
    76   38   39 2    
    77   38   40 1    
    78   40   41 1    
    79   40   42 1    
    80   40  102 1    
    81   41  103 1    
    82   41  104 1    
    83   41  105 1    
    84   42   43 am   BACKBONE|DICT|INTERRES
    85   42  106 1    
    86   43   44 2    
    87   43   45 1    
    88   45   46 1    
    89   45   49 1    
    90   45  107 1    
    91   46   47 1    
    92   46  108 1    
    93   46  109 1    
    94   47   48 1    
    95   48  110 1    
    96   48  111 1    
    97   49   50 am   BACKBONE|DICT|INTERRES
    98   49  112 1    
    99   50   51 2    
   100   50   52 1    
   101   52   53 1    
   102   52   54 1    
   103   52  113 1    
   104   53  114 1    
   105   53  115 1    
   106   53  116 1    
   107   54   55 am   BACKBONE|DICT|INTERRES
   108   54  117 1    
   109   55   56 2    
   110   55   57 1    
   111   57   58 1    
   112   57   59 1    
   113   57  118 1    
   114   58  119 1    
   115   58  120 1    
   116   58  121 1    
   117   59   60 am   BACKBONE|DICT|INTERRES
   118   59  122 1    
   119   60   61 2    
   120   60   62 1    
   121   62   63 1    
   122   62   64 1    
   123   62  123 1    
   124   63  124 1    
   125   63  125 1    
   126   63  126 1    
   127   64   65 am   BACKBONE|DICT|INTERRES
   128   64  127 1    
   129   65   66 2    
@<TRIPOS>SUBSTRUCTURE
     1 UNK         1 GROUP             0       ****    0 ROOT    
