@<TRIPOS>MOLECULE
3R135
127   129    1
SMALL
USER_CHARGES


@<TRIPOS>ATOM
      1 CA        -76.5744   21.8039  -74.4037 C.3       0 UNK        -0.1998 
      2 C         -77.7940   22.5352  -73.8680 C.2       0 UNK         0.4909 
      3 O         -78.8901   22.3917  -74.4110 O.2       0 UNK        -0.5240 
      4 N         -77.6000   23.3161  -72.7971 N.am      1 UNK        -0.4739 
      5 CA        -78.6113   24.1389  -72.1228 C.3       1 UNK         0.0864 
      6 C6        -77.9677   24.9266  -70.9543 C.3       11 UNK        -0.0881 
      7 S7        -79.1799   25.7151  -69.8419 S.3       11 UNK        -0.2682 
      8 C8        -78.2162   27.1427  -69.2270 C.3       11 UNK         0.0289 
      9 C9        -77.9402   28.2743  -70.2244 C.ar      11 UNK        -0.0687 
     10 C10       -78.5137   28.3352  -71.5018 C.ar      11 UNK        -0.0823 
     11 C11       -78.2396   29.4007  -72.3648 C.ar      11 UNK        -0.0830 
     12 C12       -77.4145   30.4391  -71.9228 C.ar      11 UNK        -0.1021 
     13 C13       -76.8177   30.3951  -70.6576 C.ar      11 UNK        -0.0753 
     14 C14       -77.0885   29.3077  -69.8217 C.ar      11 UNK        -0.0933 
     15 C15       -75.9152   31.5128  -70.1321 C.3       11 UNK         0.0166 
     16 S16       -75.2029   32.6217  -71.3970 S.3       11 UNK        -0.2615 
     17 C17       -73.9118   31.5793  -72.1663 C.3       11 UNK        -0.0865 
     18 CA        -74.1177   31.3122  -73.6914 C.3       10 UNK         0.0862 
     19 C         -73.8365   32.5349  -74.6228 C.2       10 UNK         0.5551 
     20 N         -74.0835   33.7546  -74.1713 N.am      10 UNK        -0.7319 
     21 O         -73.4337   32.3891  -75.7763 O.2       10 UNK        -0.5018 
     22 N         -73.4098   30.1018  -74.1419 N.am      10 UNK        -0.4509 
     23 C         -72.0806   29.9222  -74.1054 C.2       10 UNK         0.4899 
     24 O         -71.2949   30.7088  -73.5740 O.2       10 UNK        -0.4839 
     25 CA        -71.5367   28.6616  -74.8018 C.3       9 UNK         0.0222 
     26 CB        -70.0800   28.3261  -74.4163 C.3       9 UNK        -0.1966 
     27 N         -72.4119   27.4999  -74.6385 N.am      9 UNK        -0.4218 
     28 C         -72.7084   26.8282  -73.5162 C.2       9 UNK         0.5020 
     29 O         -72.2477   27.0920  -72.4052 O.2       9 UNK        -0.5274 
     30 CA        -73.7018   25.6568  -73.6589 C.3       8 UNK         0.0270 
     31 CB        -75.1027   26.1071  -73.2153 C.3       8 UNK        -0.1976 
     32 N         -73.7711   25.1191  -75.0238 N.am      8 UNK        -0.4313 
     33 C         -72.7681   24.4792  -75.6456 C.2       8 UNK         0.5041 
     34 O         -71.7202   24.1451  -75.0920 O.2       8 UNK        -0.5577 
     35 CA        -72.9392   24.2162  -77.1501 C.3       7 UNK         0.0284 
     36 CB        -73.6285   22.8657  -77.4005 C.3       7 UNK        -0.1958 
     37 N         -73.6868   25.2948  -77.8050 N.am      7 UNK        -0.4454 
     38 C         -73.1553   26.4768  -78.1525 C.2       7 UNK         0.5089 
     39 O         -71.9651   26.7567  -78.0151 O.2       7 UNK        -0.5125 
     40 CA        -74.1117   27.5414  -78.7226 C.3       6 UNK         0.0408 
     41 CB        -74.2259   27.3981  -80.2480 C.3       6 UNK        -0.1791 
     42 N         -75.4491   27.4933  -78.1266 N.am      6 UNK        -0.4762 
     43 C         -75.7277   27.7996  -76.8501 C.2       6 UNK         0.5007 
     44 O         -74.8867   28.2276  -76.0584 O.2       6 UNK        -0.5032 
     45 CA        -77.1683   27.5168  -76.3611 C.3       5 UNK         0.0783 
     46 C46       -78.0630   28.7799  -76.4059 C.3       11 UNK        -0.0857 
     47 S47       -77.6801   29.9419  -75.0544 S.3       11 UNK        -0.2512 
     48 C48       -78.8617   29.4303  -73.7587 C.3       11 UNK         0.0225 
     49 N         -77.8021   26.3876  -77.0559 N.am      5 UNK        -0.4615 
     50 C         -77.3415   25.1304  -77.0460 C.2       4 UNK         0.5053 
     51 O         -76.3117   24.7861  -76.4632 O.2       4 UNK        -0.5105 
     52 CA        -78.1690   24.1059  -77.8266 C.3       4 UNK         0.0263 
     53 CB        -77.4011   22.8057  -78.1276 C.3       4 UNK        -0.1981 
     54 N         -79.3734   23.8034  -77.0625 N.am      4 UNK        -0.4224 
     55 C         -80.5876   23.6081  -77.5905 C.2       3 UNK         0.4895 
     56 O         -80.8252   23.6357  -78.7989 O.2       3 UNK        -0.5091 
     57 CA        -81.7411   23.3487  -76.6078 C.3       3 UNK         0.0250 
     58 CB        -81.8843   21.8448  -76.3233 C.3       3 UNK        -0.1996 
     59 N         -81.5867   24.0753  -75.3452 N.am      3 UNK        -0.4254 
     60 C         -81.7547   25.3991  -75.2072 C.2       2 UNK         0.5004 
     61 O         -82.0750   26.1467  -76.1308 O.2       2 UNK        -0.5226 
     62 CA        -81.5417   25.9969  -73.8053 C.3       2 UNK         0.0269 
     63 CB        -82.8895   26.2110  -73.0986 C.3       2 UNK        -0.1926 
     64 N         -80.6757   25.1826  -72.9486 N.am      2 UNK        -0.4687 
     65 C         -79.3499   25.0756  -73.1049 C.2       1 UNK         0.5165 
     66 O         -78.7158   25.6897  -73.9633 O.2       1 UNK        -0.5079 
     67 H67       -75.9634   21.4110  -73.5914 H         1 UNK         0.0900 
     68 H68       -75.9637   22.4829  -74.9965 H         1 UNK         0.0900 
     69 H69       -76.8736   20.9681  -75.0353 H         1 UNK         0.0900 
     70 H70       -76.6673   23.3853  -72.4182 H         1 UNK         0.2959 
     71 H71       -79.3402   23.4405  -71.7067 H         1 UNK         0.1079 
     72 H72       -77.3614   24.2571  -70.3421 H         1 UNK         0.0837 
     73 H73       -77.2827   25.6826  -71.3392 H         1 UNK         0.0837 
     74 H74       -78.7549   27.5649  -68.3778 H         1 UNK         0.0685 
     75 H75       -77.2683   26.7721  -68.8339 H         1 UNK         0.0685 
     76 H76       -79.1853   27.5595  -71.8332 H         1 UNK         0.1434 
     77 H77       -77.2409   31.2806  -72.5770 H         1 UNK         0.1329 
     78 H78       -76.6447   29.2743  -68.8356 H         1 UNK         0.1335 
     79 H79       -76.5028   32.1223  -69.4447 H         1 UNK         0.0680 
     80 H80       -75.1004   31.0881  -69.5437 H         1 UNK         0.0680 
     81 H81       -73.8832   30.6271  -71.6355 H         1 UNK         0.1032 
     82 H82       -72.9417   32.0429  -71.9847 H         1 UNK         0.1032 
     83 H83       -75.1691   31.0770  -73.8452 H         1 UNK         0.0461 
     84 H84       -73.9211   34.5498  -74.7677 H         1 UNK         0.3453 
     85 H85       -74.4415   33.8810  -73.2351 H         1 UNK         0.3453 
     86 H86       -73.9692   29.4330  -74.6620 H         1 UNK         0.2984 
     87 H87       -71.5449   28.8859  -75.8694 H         1 UNK         0.0554 
     88 H88       -69.7286   27.4344  -74.9355 H         1 UNK         0.0847 
     89 H89       -69.9722   28.1563  -73.3447 H         1 UNK         0.0847 
     90 H90       -69.4077   29.1419  -74.6837 H         1 UNK         0.0847 
     91 H91       -72.9223   27.2335  -75.4698 H         1 UNK         0.3141 
     92 H92       -73.3707   24.8510  -73.0007 H         1 UNK         0.0743 
     93 H93       -75.4077   27.0307  -73.7064 H         1 UNK         0.0784 
     94 H94       -75.8574   25.3525  -73.4307 H         1 UNK         0.0784 
     95 H95       -75.1196   26.3007  -72.1424 H         1 UNK         0.0784 
     96 H96       -74.6377   25.2602  -75.5355 H         1 UNK         0.3213 
     97 H97       -71.9415   24.1672  -77.5926 H         1 UNK         0.0855 
     98 H98       -74.6205   22.8246  -76.9538 H         1 UNK         0.0814 
     99 H99       -73.0471   22.0494  -76.9703 H         1 UNK         0.0814 
    100 H100      -73.7309   22.6631  -78.4665 H         1 UNK         0.0814 
    101 H101      -74.6869   25.1673  -77.8839 H         1 UNK         0.3105 
    102 H102      -73.6825   28.5219  -78.5048 H         1 UNK         0.0547 
    103 H103      -73.2435   27.4560  -80.7188 H         1 UNK         0.0837 
    104 H104      -74.6679   26.4431  -80.5347 H         1 UNK         0.0837 
    105 H105      -74.8351   28.1936  -80.6774 H         1 UNK         0.0837 
    106 H106      -76.2000   27.1565  -78.7117 H         1 UNK         0.3020 
    107 H107      -77.0820   27.2063  -75.3183 H         1 UNK         0.1245 
    108 H108      -77.9612   29.3002  -77.3602 H         1 UNK         0.0781 
    109 H109      -79.1171   28.5069  -76.3322 H         1 UNK         0.0781 
    110 H110      -79.7139   30.1108  -73.7603 H         1 UNK         0.0836 
    111 H111      -79.2499   28.4421  -74.0045 H         1 UNK         0.0836 
    112 H112      -78.6665   26.5835  -77.5396 H         1 UNK         0.3022 
    113 H113      -78.4338   24.5695  -78.7795 H         1 UNK         0.0747 
    114 H114      -77.9977   22.1294  -78.7396 H         1 UNK         0.0793 
    115 H115      -76.4817   23.0121  -78.6762 H         1 UNK         0.0793 
    116 H116      -77.1309   22.2751  -77.2155 H         1 UNK         0.0793 
    117 H117      -79.2594   23.7310  -76.0561 H         1 UNK         0.3047 
    118 H118      -82.6622   23.6905  -77.0853 H         1 UNK         0.0822 
    119 H119      -82.7430   21.6413  -75.6835 H         1 UNK         0.0807 
    120 H120      -80.9977   21.4380  -75.8357 H         1 UNK         0.0807 
    121 H121      -82.0310   21.2860  -77.2486 H         1 UNK         0.0807 
    122 H122      -81.2876   23.5394  -74.5435 H         1 UNK         0.2946 
    123 H123      -81.0732   26.9729  -73.9427 H         1 UNK         0.1144 
    124 H124      -83.5478   26.8414  -73.6978 H         1 UNK         0.0793 
    125 H125      -82.7587   26.7055  -72.1361 H         1 UNK         0.0793 
    126 H126      -83.4098   25.2685  -72.9253 H         1 UNK         0.0793 
    127 H127      -81.1263   24.6734  -72.2011 H         1 UNK         0.2896 
@<TRIPOS>BOND
     1    1    2 1    
     2    1   67 1    
     3    1   68 1    
     4    1   69 1    
     5    2    3 2    
     6    2    4 am   BACKBONE|DICT|INTERRES
     7    4    5 1    
     8    4   70 1    
     9    5    6 1    
    10    5   65 1    
    11    5   71 1    
    12    6    7 1    
    13    6   72 1    
    14    6   73 1    
    15    7    8 1    
    16    8    9 1    
    17    8   74 1    
    18    8   75 1    
    19    9   10 ar   
    20    9   14 ar   
    21   10   11 ar   
    22   10   76 1    
    23   11   12 ar   
    24   11   48 1    
    25   12   13 ar   
    26   12   77 1    
    27   13   14 ar   
    28   13   15 1    
    29   14   78 1    
    30   15   16 1    
    31   15   79 1    
    32   15   80 1    
    33   16   17 1    
    34   17   18 1    
    35   17   81 1    
    36   17   82 1    
    37   18   19 1    
    38   18   22 1    
    39   18   83 1    
    40   19   20 am   BACKBONE|DICT|INTERRES
    41   19   21 2    
    42   20   84 1    
    43   20   85 1    
    44   22   23 am   BACKBONE|DICT|INTERRES
    45   22   86 1    
    46   23   24 2    
    47   23   25 1    
    48   25   26 1    
    49   25   27 1    
    50   25   87 1    
    51   26   88 1    
    52   26   89 1    
    53   26   90 1    
    54   27   28 am   BACKBONE|DICT|INTERRES
    55   27   91 1    
    56   28   29 2    
    57   28   30 1    
    58   30   31 1    
    59   30   32 1    
    60   30   92 1    
    61   31   93 1    
    62   31   94 1    
    63   31   95 1    
    64   32   33 am   BACKBONE|DICT|INTERRES
    65   32   96 1    
    66   33   34 2    
    67   33   35 1    
    68   35   36 1    
    69   35   37 1    
    70   35   97 1    
    71   36   98 1    
    72   36   99 1    
    73   36  100 1    
    74   37   38 am   BACKBONE|DICT|INTERRES
    75   37  101 1    
    76   38   39 2    
    77   38   40 1    
    78   40   41 1    
    79   40   42 1    
    80   40  102 1    
    81   41  103 1    
    82   41  104 1    
    83   41  105 1    
    84   42   43 am   BACKBONE|DICT|INTERRES
    85   42  106 1    
    86   43   44 2    
    87   43   45 1    
    88   45   46 1    
    89   45   49 1    
    90   45  107 1    
    91   46   47 1    
    92   46  108 1    
    93   46  109 1    
    94   47   48 1    
    95   48  110 1    
    96   48  111 1    
    97   49   50 am   BACKBONE|DICT|INTERRES
    98   49  112 1    
    99   50   51 2    
   100   50   52 1    
   101   52   53 1    
   102   52   54 1    
   103   52  113 1    
   104   53  114 1    
   105   53  115 1    
   106   53  116 1    
   107   54   55 am   BACKBONE|DICT|INTERRES
   108   54  117 1    
   109   55   56 2    
   110   55   57 1    
   111   57   58 1    
   112   57   59 1    
   113   57  118 1    
   114   58  119 1    
   115   58  120 1    
   116   58  121 1    
   117   59   60 am   BACKBONE|DICT|INTERRES
   118   59  122 1    
   119   60   61 2    
   120   60   62 1    
   121   62   63 1    
   122   62   64 1    
   123   62  123 1    
   124   63  124 1    
   125   63  125 1    
   126   63  126 1    
   127   64   65 am   BACKBONE|DICT|INTERRES
   128   64  127 1    
   129   65   66 2    
@<TRIPOS>SUBSTRUCTURE
     1 UNK         1 GROUP             0       ****    0 ROOT    
