@<TRIPOS>MOLECULE
3R135
127   129    1
SMALL
USER_CHARGES


@<TRIPOS>ATOM
      1 CA        -80.1418   31.3191  -74.8206 C.3       0 UNK        -0.1998 
      2 C         -80.5134   29.9285  -75.3124 C.2       0 UNK         0.4909 
      3 O         -80.2051   29.5785  -76.4518 O.2       0 UNK        -0.5240 
      4 N         -81.1612   29.1278  -74.4572 N.am      1 UNK        -0.4739 
      5 CA        -81.5910   27.7600  -74.7601 C.3       1 UNK         0.0864 
      6 C6        -81.9459   26.9748  -73.4726 C.3       11 UNK        -0.0881 
      7 S7        -80.4427   26.4293  -72.6042 S.3       11 UNK        -0.2682 
      8 C8        -80.1756   27.7406  -71.3760 C.3       11 UNK         0.0289 
      9 C9        -78.6904   27.8796  -71.0833 C.ar      11 UNK        -0.0687 
     10 C10       -78.0264   26.8958  -70.3467 C.ar      11 UNK        -0.0823 
     11 C11       -76.6536   26.9936  -70.1037 C.ar      11 UNK        -0.0830 
     12 C12       -75.9448   28.0929  -70.6011 C.ar      11 UNK        -0.1021 
     13 C13       -76.5987   29.0914  -71.3336 C.ar      11 UNK        -0.0753 
     14 C14       -77.9745   28.9791  -71.5644 C.ar      11 UNK        -0.0933 
     15 C15       -75.8221   30.3031  -71.8400 C.3       11 UNK         0.0166 
     16 S16       -76.1458   30.6695  -73.5973 S.3       11 UNK        -0.2615 
     17 C17       -74.8816   31.9377  -73.9452 C.3       11 UNK        -0.0865 
     18 CA        -73.7371   31.4054  -74.8475 C.3       10 UNK         0.0862 
     19 C         -72.7793   32.5641  -75.2390 C.2       10 UNK         0.5551 
     20 N         -73.0135   33.2058  -76.3754 N.am      10 UNK        -0.7319 
     21 O         -71.8617   32.9150  -74.4991 O.2       10 UNK        -0.5018 
     22 N         -73.0385   30.2766  -74.2155 N.am      10 UNK        -0.4509 
     23 C         -72.0931   29.5196  -74.7864 C.2       10 UNK         0.4899 
     24 O         -71.7045   29.6675  -75.9462 O.2       10 UNK        -0.4839 
     25 CA        -71.4577   28.4200  -73.9151 C.3       9 UNK         0.0222 
     26 CB        -71.9766   28.3836  -72.4604 C.3       9 UNK        -0.1966 
     27 N         -71.6855   27.1144  -74.5311 N.am      9 UNK        -0.4218 
     28 C         -70.8260   26.4686  -75.3298 C.2       9 UNK         0.5020 
     29 O         -69.7018   26.8843  -75.6169 O.2       9 UNK        -0.5274 
     30 CA        -71.2881   25.1123  -75.8900 C.3       8 UNK         0.0270 
     31 CB        -71.1954   24.0180  -74.8134 C.3       8 UNK        -0.1976 
     32 N         -72.6468   25.1539  -76.4345 N.am      8 UNK        -0.4313 
     33 C         -72.9905   25.7661  -77.5770 C.2       8 UNK         0.5041 
     34 O         -72.1862   26.3211  -78.3268 O.2       8 UNK        -0.5577 
     35 CA        -74.4832   25.7569  -77.9542 C.3       7 UNK         0.0284 
     36 CB        -74.8681   24.4386  -78.6444 C.3       7 UNK        -0.1958 
     37 N         -75.3533   25.9819  -76.7992 N.am      7 UNK        -0.4454 
     38 C         -75.4385   27.1429  -76.1346 C.2       7 UNK         0.5089 
     39 O         -74.8757   28.1774  -76.4897 O.2       7 UNK        -0.5125 
     40 CA        -76.2756   27.1466  -74.8450 C.3       6 UNK         0.0408 
     41 CB        -77.7316   27.5261  -75.1399 C.3       6 UNK        -0.1791 
     42 N         -76.2284   25.8755  -74.1205 N.am      6 UNK        -0.4762 
     43 C         -75.1271   25.4056  -73.5178 C.2       6 UNK         0.5007 
     44 O         -74.0442   25.9889  -73.5280 O.2       6 UNK        -0.5032 
     45 CA        -75.2293   24.0172  -72.8561 C.3       5 UNK         0.0783 
     46 C46       -75.8768   24.0815  -71.4510 C.3       11 UNK        -0.0857 
     47 S47       -74.7889   24.9076  -70.2369 S.3       11 UNK        -0.2512 
     48 C48       -75.9521   25.9263  -69.2720 C.3       11 UNK         0.0225 
     49 N         -75.8985   23.0514  -73.7345 N.am      5 UNK        -0.4615 
     50 C         -75.4042   22.6446  -74.9136 C.2       4 UNK         0.5053 
     51 O         -74.3178   23.0112  -75.3595 O.2       4 UNK        -0.5105 
     52 CA        -76.2834   21.7082  -75.7611 C.3       4 UNK         0.0263 
     53 CB        -76.0486   20.2429  -75.3618 C.3       4 UNK        -0.1981 
     54 N         -77.7161   22.0159  -75.6895 N.am      4 UNK        -0.4224 
     55 C         -78.2648   23.1844  -76.0485 C.2       3 UNK         0.4895 
     56 O         -77.6185   24.1449  -76.4790 O.2       3 UNK        -0.5091 
     57 CA        -79.7787   23.3189  -75.8439 C.3       3 UNK         0.0250 
     58 CB        -80.1102   23.3143  -74.3373 C.3       3 UNK        -0.1996 
     59 N         -80.2049   24.5637  -76.4820 N.am      3 UNK        -0.4254 
     60 C         -81.4601   24.9792  -76.6781 C.2       2 UNK         0.5004 
     61 O         -82.4620   24.3637  -76.3085 O.2       2 UNK        -0.5226 
     62 CA        -81.6253   26.3030  -77.4455 C.3       2 UNK         0.0269 
     63 CB        -81.8975   26.0171  -78.9314 C.3       2 UNK        -0.1926 
     64 N         -82.7250   27.1169  -76.9137 N.am      2 UNK        -0.4687 
     65 C         -82.7841   27.7794  -75.7462 C.2       1 UNK         0.5165 
     66 O         -83.7890   28.4168  -75.4286 O.2       1 UNK        -0.5079 
     67 H67       -80.5982   32.0770  -75.4567 H         1 UNK         0.0900 
     68 H68       -79.0603   31.4499  -74.8552 H         1 UNK         0.0900 
     69 H69       -80.4704   31.4916  -73.7960 H         1 UNK         0.0900 
     70 H70       -81.4345   29.4830  -73.5535 H         1 UNK         0.2959 
     71 H71       -80.7359   27.2690  -75.2187 H         1 UNK         0.1079 
     72 H72       -82.5867   27.5562  -72.8071 H         1 UNK         0.0837 
     73 H73       -82.5060   26.0690  -73.7152 H         1 UNK         0.0837 
     74 H74       -80.5810   28.6858  -71.7369 H         1 UNK         0.0685 
     75 H75       -80.7179   27.4980  -70.4611 H         1 UNK         0.0685 
     76 H76       -78.5833   26.0475  -69.9725 H         1 UNK         0.1434 
     77 H77       -74.8835   28.1701  -70.4084 H         1 UNK         0.1329 
     78 H78       -78.4854   29.7452  -72.1309 H         1 UNK         0.1335 
     79 H79       -76.0922   31.1722  -71.2388 H         1 UNK         0.0680 
     80 H80       -74.7514   30.1482  -71.7022 H         1 UNK         0.0680 
     81 H81       -74.4851   32.3378  -73.0099 H         1 UNK         0.1032 
     82 H82       -75.3891   32.7719  -74.4338 H         1 UNK         0.1032 
     83 H83       -74.1848   31.0174  -75.7651 H         1 UNK         0.0461 
     84 H84       -73.7692   32.9297  -76.9831 H         1 UNK         0.3453 
     85 H85       -72.4139   33.9721  -76.6389 H         1 UNK         0.3453 
     86 H86       -73.2914   30.0849  -73.2599 H         1 UNK         0.2984 
     87 H87       -70.3867   28.6279  -73.8739 H         1 UNK         0.0554 
     88 H88       -71.4839   27.5942  -71.8924 H         1 UNK         0.0847 
     89 H89       -73.0500   28.1961  -72.4086 H         1 UNK         0.0847 
     90 H90       -71.7711   29.3205  -71.9410 H         1 UNK         0.0847 
     91 H91       -72.5873   26.6824  -74.3312 H         1 UNK         0.3141 
     92 H92       -70.6095   24.8407  -76.7016 H         1 UNK         0.0743 
     93 H93       -71.8769   24.2071  -73.9833 H         1 UNK         0.0784 
     94 H94       -71.4361   23.0374  -75.2248 H         1 UNK         0.0784 
     95 H95       -70.1868   23.9588  -74.4021 H         1 UNK         0.0784 
     96 H96       -73.3617   24.6491  -75.9179 H         1 UNK         0.3213 
     97 H97       -74.6517   26.5709  -78.6627 H         1 UNK         0.0855 
     98 H98       -74.2753   24.2859  -79.5472 H         1 UNK         0.0814 
     99 H99       -75.9176   24.4361  -78.9398 H         1 UNK         0.0814 
    100 H100      -74.7009   23.5781  -77.9971 H         1 UNK         0.0814 
    101 H101      -75.9259   25.2034  -76.4872 H         1 UNK         0.3105 
    102 H102      -75.8523   27.9069  -74.1878 H         1 UNK         0.0547 
    103 H103      -77.7789   28.4670  -75.6893 H         1 UNK         0.0837 
    104 H104      -78.2370   26.7698  -75.7390 H         1 UNK         0.0837 
    105 H105      -78.2943   27.6665  -74.2184 H         1 UNK         0.0837 
    106 H106      -77.0696   25.3186  -74.1138 H         1 UNK         0.3020 
    107 H107      -74.2049   23.6575  -72.7297 H         1 UNK         0.1245 
    108 H108      -76.0614   23.0723  -71.0797 H         1 UNK         0.0781 
    109 H109      -76.8520   24.5683  -71.4938 H         1 UNK         0.0781 
    110 H110      -75.4025   26.4124  -68.4648 H         1 UNK         0.0836 
    111 H111      -76.6777   25.2700  -68.7889 H         1 UNK         0.0836 
    112 H112      -76.7970   22.7022  -73.4367 H         1 UNK         0.3022 
    113 H113      -75.9767   21.8283  -76.8020 H         1 UNK         0.0747 
    114 H114      -76.5858   19.5606  -76.0209 H         1 UNK         0.0793 
    115 H115      -74.9902   19.9861  -75.4274 H         1 UNK         0.0793 
    116 H116      -76.3691   20.0446  -74.3382 H         1 UNK         0.0793 
    117 H117      -78.3183   21.2825  -75.3433 H         1 UNK         0.3047 
    118 H118      -80.2796   22.4855  -76.3405 H         1 UNK         0.0822 
    119 H119      -81.1545   23.5554  -74.1411 H         1 UNK         0.0807 
    120 H120      -79.4940   24.0290  -73.7929 H         1 UNK         0.0807 
    121 H121      -79.9269   22.3334  -73.8980 H         1 UNK         0.0807 
    122 H122      -79.4247   25.0913  -76.8568 H         1 UNK         0.2946 
    123 H123      -80.7004   26.8815  -77.3899 H         1 UNK         0.1144 
    124 H124      -81.0872   25.4353  -79.3732 H         1 UNK         0.0793 
    125 H125      -81.9799   26.9404  -79.5053 H         1 UNK         0.0793 
    126 H126      -82.8190   25.4503  -79.0724 H         1 UNK         0.0793 
    127 H127      -83.5501   27.1414  -77.4942 H         1 UNK         0.2896 
@<TRIPOS>BOND
     1    1    2 1    
     2    1   67 1    
     3    1   68 1    
     4    1   69 1    
     5    2    3 2    
     6    2    4 am   BACKBONE|DICT|INTERRES
     7    4    5 1    
     8    4   70 1    
     9    5    6 1    
    10    5   65 1    
    11    5   71 1    
    12    6    7 1    
    13    6   72 1    
    14    6   73 1    
    15    7    8 1    
    16    8    9 1    
    17    8   74 1    
    18    8   75 1    
    19    9   10 ar   
    20    9   14 ar   
    21   10   11 ar   
    22   10   76 1    
    23   11   12 ar   
    24   11   48 1    
    25   12   13 ar   
    26   12   77 1    
    27   13   14 ar   
    28   13   15 1    
    29   14   78 1    
    30   15   16 1    
    31   15   79 1    
    32   15   80 1    
    33   16   17 1    
    34   17   18 1    
    35   17   81 1    
    36   17   82 1    
    37   18   19 1    
    38   18   22 1    
    39   18   83 1    
    40   19   20 am   BACKBONE|DICT|INTERRES
    41   19   21 2    
    42   20   84 1    
    43   20   85 1    
    44   22   23 am   BACKBONE|DICT|INTERRES
    45   22   86 1    
    46   23   24 2    
    47   23   25 1    
    48   25   26 1    
    49   25   27 1    
    50   25   87 1    
    51   26   88 1    
    52   26   89 1    
    53   26   90 1    
    54   27   28 am   BACKBONE|DICT|INTERRES
    55   27   91 1    
    56   28   29 2    
    57   28   30 1    
    58   30   31 1    
    59   30   32 1    
    60   30   92 1    
    61   31   93 1    
    62   31   94 1    
    63   31   95 1    
    64   32   33 am   BACKBONE|DICT|INTERRES
    65   32   96 1    
    66   33   34 2    
    67   33   35 1    
    68   35   36 1    
    69   35   37 1    
    70   35   97 1    
    71   36   98 1    
    72   36   99 1    
    73   36  100 1    
    74   37   38 am   BACKBONE|DICT|INTERRES
    75   37  101 1    
    76   38   39 2    
    77   38   40 1    
    78   40   41 1    
    79   40   42 1    
    80   40  102 1    
    81   41  103 1    
    82   41  104 1    
    83   41  105 1    
    84   42   43 am   BACKBONE|DICT|INTERRES
    85   42  106 1    
    86   43   44 2    
    87   43   45 1    
    88   45   46 1    
    89   45   49 1    
    90   45  107 1    
    91   46   47 1    
    92   46  108 1    
    93   46  109 1    
    94   47   48 1    
    95   48  110 1    
    96   48  111 1    
    97   49   50 am   BACKBONE|DICT|INTERRES
    98   49  112 1    
    99   50   51 2    
   100   50   52 1    
   101   52   53 1    
   102   52   54 1    
   103   52  113 1    
   104   53  114 1    
   105   53  115 1    
   106   53  116 1    
   107   54   55 am   BACKBONE|DICT|INTERRES
   108   54  117 1    
   109   55   56 2    
   110   55   57 1    
   111   57   58 1    
   112   57   59 1    
   113   57  118 1    
   114   58  119 1    
   115   58  120 1    
   116   58  121 1    
   117   59   60 am   BACKBONE|DICT|INTERRES
   118   59  122 1    
   119   60   61 2    
   120   60   62 1    
   121   62   63 1    
   122   62   64 1    
   123   62  123 1    
   124   63  124 1    
   125   63  125 1    
   126   63  126 1    
   127   64   65 am   BACKBONE|DICT|INTERRES
   128   64  127 1    
   129   65   66 2    
@<TRIPOS>SUBSTRUCTURE
     1 UNK         1 GROUP             0       ****    0 ROOT    
