@<TRIPOS>MOLECULE
3R135
127   129    1
SMALL
USER_CHARGES


@<TRIPOS>ATOM
      1 CA        -83.9078   27.1208  -70.8533 C.3       0 UNK        -0.1998 
      2 C         -83.6361   27.4386  -72.3160 C.2       0 UNK         0.4909 
      3 O         -84.5335   27.3067  -73.1486 O.2       0 UNK        -0.5240 
      4 N         -82.4043   27.8595  -72.6317 N.am      1 UNK        -0.4739 
      5 CA        -81.9516   28.1905  -73.9896 C.3       1 UNK         0.0864 
      6 C6        -80.6310   28.9992  -73.9715 C.3       11 UNK        -0.0881 
      7 S7        -80.8383   30.6795  -73.2775 S.3       11 UNK        -0.2682 
      8 C8        -80.4501   30.4896  -71.5028 C.3       11 UNK         0.0289 
      9 C9        -79.0352   29.9835  -71.2644 C.ar      11 UNK        -0.0687 
     10 C10       -78.8200   28.6506  -70.9079 C.ar      11 UNK        -0.0823 
     11 C11       -77.5217   28.1570  -70.7672 C.ar      11 UNK        -0.0830 
     12 C12       -76.4359   29.0238  -70.9202 C.ar      11 UNK        -0.1021 
     13 C13       -76.6321   30.3725  -71.2481 C.ar      11 UNK        -0.0753 
     14 C14       -77.9403   30.8387  -71.4231 C.ar      11 UNK        -0.0933 
     15 C15       -75.4720   31.3472  -71.4763 C.3       11 UNK         0.0166 
     16 S16       -73.9055   30.9281  -70.6323 S.3       11 UNK        -0.2615 
     17 C17       -73.1662   29.7207  -71.7881 C.3       11 UNK        -0.0865 
     18 CA        -71.9629   30.2940  -72.5891 C.3       10 UNK         0.0862 
     19 C         -70.6066   30.1792  -71.8310 C.2       10 UNK         0.5551 
     20 N         -69.5446   29.6532  -72.4336 N.am      10 UNK        -0.7319 
     21 O         -70.5026   30.5901  -70.6784 O.2       10 UNK        -0.5018 
     22 N         -71.9122   29.7173  -73.9372 N.am      10 UNK        -0.4509 
     23 C         -72.5264   30.1816  -75.0274 C.2       10 UNK         0.4899 
     24 O         -73.2248   31.1954  -75.0409 O.2       10 UNK        -0.4839 
     25 CA        -72.3505   29.3756  -76.3287 C.3       9 UNK         0.0222 
     26 CB        -71.1695   29.9111  -77.1605 C.3       9 UNK        -0.1966 
     27 N         -72.2639   27.9192  -76.1417 N.am      9 UNK        -0.4218 
     28 C         -71.3048   27.1824  -75.5621 C.2       9 UNK         0.5020 
     29 O         -70.2856   27.6605  -75.0604 O.2       9 UNK        -0.5274 
     30 CA        -71.5436   25.6638  -75.4631 C.3       8 UNK         0.0270 
     31 CB        -71.9989   25.2947  -74.0416 C.3       8 UNK        -0.1976 
     32 N         -72.5228   25.1552  -76.4298 N.am      8 UNK        -0.4313 
     33 C         -72.3038   25.0499  -77.7486 C.2       8 UNK         0.5041 
     34 O         -71.2264   25.3097  -78.2862 O.2       8 UNK        -0.5577 
     35 CA        -73.4901   24.6019  -78.6199 C.3       7 UNK         0.0284 
     36 CB        -73.6361   23.0719  -78.5965 C.3       7 UNK        -0.1958 
     37 N         -74.7558   25.2277  -78.2263 N.am      7 UNK        -0.4454 
     38 C         -75.0220   26.5388  -78.3239 C.2       7 UNK         0.5089 
     39 O         -74.2469   27.3623  -78.8093 O.2       7 UNK        -0.5125 
     40 CA        -76.3602   27.0250  -77.7394 C.3       6 UNK         0.0408 
     41 CB        -77.5112   26.7953  -78.7305 C.3       6 UNK        -0.1791 
     42 N         -76.6791   26.3986  -76.4547 N.am      6 UNK        -0.4762 
     43 C         -75.9448   26.5281  -75.3395 C.2       6 UNK         0.5007 
     44 O         -74.9365   27.2272  -75.2606 O.2       6 UNK        -0.5032 
     45 CA        -76.3905   25.7079  -74.1163 C.3       5 UNK         0.0783 
     46 C46       -77.5375   26.4369  -73.3833 C.3       11 UNK        -0.0857 
     47 S47       -78.0463   25.6219  -71.8283 S.3       11 UNK        -0.2512 
     48 C48       -77.2842   26.6694  -70.5358 C.3       11 UNK         0.0225 
     49 N         -76.7417   24.3388  -74.5005 N.am      5 UNK        -0.4615 
     50 C         -75.8753   23.4366  -74.9803 C.2       4 UNK         0.5053 
     51 O         -74.6691   23.6456  -75.1078 O.2       4 UNK        -0.5105 
     52 CA        -76.4642   22.0926  -75.4400 C.3       4 UNK         0.0263 
     53 CB        -76.6673   21.1525  -74.2414 C.3       4 UNK        -0.1981 
     54 N         -77.7301   22.2536  -76.1607 N.am      4 UNK        -0.4224 
     55 C         -77.8544   22.8742  -77.3435 C.2       3 UNK         0.4895 
     56 O         -76.9035   23.3153  -77.9873 O.2       3 UNK        -0.5091 
     57 CA        -79.2840   23.0844  -77.8743 C.3       3 UNK         0.0250 
     58 CB        -79.7413   21.8649  -78.6900 C.3       3 UNK        -0.1996 
     59 N         -80.2656   23.3711  -76.8208 N.am      3 UNK        -0.4254 
     60 C         -80.2072   24.4230  -75.9915 C.2       2 UNK         0.5004 
     61 O         -79.3096   25.2670  -76.0279 O.2       2 UNK        -0.5226 
     62 CA        -81.2931   24.4890  -74.9023 C.3       2 UNK         0.0269 
     63 CB        -81.0035   23.4536  -73.8013 C.3       2 UNK        -0.1926 
     64 N         -81.4152   25.8061  -74.2706 N.am      2 UNK        -0.4687 
     65 C         -81.8238   26.9314  -74.8765 C.2       1 UNK         0.5165 
     66 O         -82.1363   26.9948  -76.0667 O.2       1 UNK        -0.5079 
     67 H67       -84.2048   26.0780  -70.7454 H         1 UNK         0.0900 
     68 H68       -84.7172   27.7464  -70.4780 H         1 UNK         0.0900 
     69 H69       -83.0313   27.2901  -70.2281 H         1 UNK         0.0900 
     70 H70       -81.7150   27.9582  -71.9031 H         1 UNK         0.2959 
     71 H71       -82.7206   28.8141  -74.4520 H         1 UNK         0.1079 
     72 H72       -79.8465   28.4594  -73.4423 H         1 UNK         0.0837 
     73 H73       -80.2580   29.1296  -74.9895 H         1 UNK         0.0837 
     74 H74       -80.5688   31.4590  -71.0165 H         1 UNK         0.0685 
     75 H75       -81.1831   29.8315  -71.0357 H         1 UNK         0.0685 
     76 H76       -79.6578   27.9773  -70.7944 H         1 UNK         0.1434 
     77 H77       -75.4385   28.6279  -70.8076 H         1 UNK         0.1329 
     78 H78       -78.1103   31.8693  -71.7043 H         1 UNK         0.1335 
     79 H79       -75.7691   32.3376  -71.1280 H         1 UNK         0.0680 
     80 H80       -75.2909   31.4437  -72.5481 H         1 UNK         0.0680 
     81 H81       -73.9468   29.3885  -72.4747 H         1 UNK         0.1032 
     82 H82       -72.8767   28.8264  -71.2331 H         1 UNK         0.1032 
     83 H83       -72.1126   31.3682  -72.7134 H         1 UNK         0.0461 
     84 H84       -68.6767   29.5965  -71.9242 H         1 UNK         0.3453 
     85 H85       -69.5864   29.3182  -73.3841 H         1 UNK         0.3453 
     86 H86       -71.3265   28.8960  -74.0516 H         1 UNK         0.2984 
     87 H87       -73.2591   29.5320  -76.9124 H         1 UNK         0.0554 
     88 H88       -71.0850   29.3840  -78.1109 H         1 UNK         0.0847 
     89 H89       -70.2192   29.8116  -76.6353 H         1 UNK         0.0847 
     90 H90       -71.3033   30.9696  -77.3872 H         1 UNK         0.0847 
     91 H91       -73.1110   27.4236  -76.3951 H         1 UNK         0.3141 
     92 H92       -70.5883   25.1708  -75.6550 H         1 UNK         0.0743 
     93 H93       -71.2719   25.6250  -73.2983 H         1 UNK         0.0784 
     94 H94       -72.9545   25.7574  -73.7924 H         1 UNK         0.0784 
     95 H95       -72.1101   24.2161  -73.9283 H         1 UNK         0.0784 
     96 H96       -73.4143   24.8404  -76.0551 H         1 UNK         0.3213 
     97 H97       -73.2771   24.9057  -79.6471 H         1 UNK         0.0855 
     98 H98       -72.7100   22.5865  -78.9072 H         1 UNK         0.0814 
     99 H99       -74.4206   22.7387  -79.2762 H         1 UNK         0.0814 
    100 H100      -73.8799   22.7035  -77.5998 H         1 UNK         0.0814 
    101 H101      -75.4865   24.6082  -77.8838 H         1 UNK         0.3105 
    102 H102      -76.2755   28.0997  -77.5651 H         1 UNK         0.0547 
    103 H103      -77.3273   27.3219  -79.6677 H         1 UNK         0.0837 
    104 H104      -77.6343   25.7396  -78.9706 H         1 UNK         0.0837 
    105 H105      -78.4581   27.1603  -78.3321 H         1 UNK         0.0837 
    106 H106      -77.5317   25.8440  -76.4078 H         1 UNK         0.3020 
    107 H107      -75.5356   25.6525  -73.4386 H         1 UNK         0.1245 
    108 H108      -78.4209   26.5001  -74.0175 H         1 UNK         0.0781 
    109 H109      -77.2533   27.4719  -73.1973 H         1 UNK         0.0781 
    110 H110      -76.2164   26.4484  -70.4982 H         1 UNK         0.0836 
    111 H111      -77.6906   26.3879  -69.5635 H         1 UNK         0.0836 
    112 H112      -77.7229   24.1084  -74.4666 H         1 UNK         0.3022 
    113 H113      -75.7457   21.6304  -76.1203 H         1 UNK         0.0747 
    114 H114      -77.0111   20.1690  -74.5625 H         1 UNK         0.0793 
    115 H115      -75.7316   21.0056  -73.6998 H         1 UNK         0.0793 
    116 H116      -77.3953   21.5486  -73.5321 H         1 UNK         0.0793 
    117 H117      -78.5646   21.9118  -75.7076 H         1 UNK         0.3047 
    118 H118      -79.2596   23.9487  -78.5409 H         1 UNK         0.0822 
    119 H119      -80.7116   22.0395  -79.1554 H         1 UNK         0.0807 
    120 H120      -79.8202   20.9693  -78.0725 H         1 UNK         0.0807 
    121 H121      -79.0349   21.6462  -79.4924 H         1 UNK         0.0807 
    122 H122      -81.0283   22.7156  -76.7252 H         1 UNK         0.2946 
    123 H123      -82.2525   24.2555  -75.3695 H         1 UNK         0.1144 
    124 H124      -81.7843   23.4562  -73.0402 H         1 UNK         0.0793 
    125 H125      -80.0526   23.6487  -73.3037 H         1 UNK         0.0793 
    126 H126      -80.9587   22.4417  -74.2057 H         1 UNK         0.0793 
    127 H127      -81.1751   25.8581  -73.2922 H         1 UNK         0.2896 
@<TRIPOS>BOND
     1    1    2 1    
     2    1   67 1    
     3    1   68 1    
     4    1   69 1    
     5    2    3 2    
     6    2    4 am   BACKBONE|DICT|INTERRES
     7    4    5 1    
     8    4   70 1    
     9    5    6 1    
    10    5   65 1    
    11    5   71 1    
    12    6    7 1    
    13    6   72 1    
    14    6   73 1    
    15    7    8 1    
    16    8    9 1    
    17    8   74 1    
    18    8   75 1    
    19    9   10 ar   
    20    9   14 ar   
    21   10   11 ar   
    22   10   76 1    
    23   11   12 ar   
    24   11   48 1    
    25   12   13 ar   
    26   12   77 1    
    27   13   14 ar   
    28   13   15 1    
    29   14   78 1    
    30   15   16 1    
    31   15   79 1    
    32   15   80 1    
    33   16   17 1    
    34   17   18 1    
    35   17   81 1    
    36   17   82 1    
    37   18   19 1    
    38   18   22 1    
    39   18   83 1    
    40   19   20 am   BACKBONE|DICT|INTERRES
    41   19   21 2    
    42   20   84 1    
    43   20   85 1    
    44   22   23 am   BACKBONE|DICT|INTERRES
    45   22   86 1    
    46   23   24 2    
    47   23   25 1    
    48   25   26 1    
    49   25   27 1    
    50   25   87 1    
    51   26   88 1    
    52   26   89 1    
    53   26   90 1    
    54   27   28 am   BACKBONE|DICT|INTERRES
    55   27   91 1    
    56   28   29 2    
    57   28   30 1    
    58   30   31 1    
    59   30   32 1    
    60   30   92 1    
    61   31   93 1    
    62   31   94 1    
    63   31   95 1    
    64   32   33 am   BACKBONE|DICT|INTERRES
    65   32   96 1    
    66   33   34 2    
    67   33   35 1    
    68   35   36 1    
    69   35   37 1    
    70   35   97 1    
    71   36   98 1    
    72   36   99 1    
    73   36  100 1    
    74   37   38 am   BACKBONE|DICT|INTERRES
    75   37  101 1    
    76   38   39 2    
    77   38   40 1    
    78   40   41 1    
    79   40   42 1    
    80   40  102 1    
    81   41  103 1    
    82   41  104 1    
    83   41  105 1    
    84   42   43 am   BACKBONE|DICT|INTERRES
    85   42  106 1    
    86   43   44 2    
    87   43   45 1    
    88   45   46 1    
    89   45   49 1    
    90   45  107 1    
    91   46   47 1    
    92   46  108 1    
    93   46  109 1    
    94   47   48 1    
    95   48  110 1    
    96   48  111 1    
    97   49   50 am   BACKBONE|DICT|INTERRES
    98   49  112 1    
    99   50   51 2    
   100   50   52 1    
   101   52   53 1    
   102   52   54 1    
   103   52  113 1    
   104   53  114 1    
   105   53  115 1    
   106   53  116 1    
   107   54   55 am   BACKBONE|DICT|INTERRES
   108   54  117 1    
   109   55   56 2    
   110   55   57 1    
   111   57   58 1    
   112   57   59 1    
   113   57  118 1    
   114   58  119 1    
   115   58  120 1    
   116   58  121 1    
   117   59   60 am   BACKBONE|DICT|INTERRES
   118   59  122 1    
   119   60   61 2    
   120   60   62 1    
   121   62   63 1    
   122   62   64 1    
   123   62  123 1    
   124   63  124 1    
   125   63  125 1    
   126   63  126 1    
   127   64   65 am   BACKBONE|DICT|INTERRES
   128   64  127 1    
   129   65   66 2    
@<TRIPOS>SUBSTRUCTURE
     1 UNK         1 GROUP             0       ****    0 ROOT    
