@<TRIPOS>MOLECULE
3R135
127   129    1
SMALL
USER_CHARGES


@<TRIPOS>ATOM
      1 CA        -82.1154   30.0244  -75.9795 C.3       0 UNK        -0.1998 
      2 C         -81.4315   29.1484  -74.9413 C.2       0 UNK         0.4909 
      3 O         -80.3197   28.6769  -75.1776 O.2       0 UNK        -0.5240 
      4 N         -82.0852   28.9303  -73.7933 N.am      1 UNK        -0.4739 
      5 CA        -81.5838   28.1079  -72.6882 C.3       1 UNK         0.0864 
      6 C6        -82.1967   28.5161  -71.3211 C.3       11 UNK        -0.0881 
      7 S7        -81.9541   30.2873  -70.9362 S.3       11 UNK        -0.2682 
      8 C8        -80.4294   30.2734  -69.9341 C.3       11 UNK         0.0289 
      9 C9        -79.2450   29.6852  -70.6895 C.ar      11 UNK        -0.0687 
     10 C10       -78.6174   28.5269  -70.2218 C.ar      11 UNK        -0.0823 
     11 C11       -77.5563   27.9483  -70.9258 C.ar      11 UNK        -0.0830 
     12 C12       -77.1325   28.5465  -72.1209 C.ar      11 UNK        -0.1021 
     13 C13       -77.7521   29.7035  -72.6004 C.ar      11 UNK        -0.0753 
     14 C14       -78.7945   30.2799  -71.8717 C.ar      11 UNK        -0.0933 
     15 C15       -77.3350   30.2975  -73.9360 C.3       11 UNK         0.0166 
     16 S16       -76.1668   31.6827  -73.7614 S.3       11 UNK        -0.2615 
     17 C17       -74.6254   30.8491  -73.2401 C.3       11 UNK        -0.0865 
     18 CA        -73.8420   30.1641  -74.4031 C.3       10 UNK         0.0862 
     19 C         -73.0360   31.1405  -75.3190 C.2       10 UNK         0.5551 
     20 N         -73.5147   32.3595  -75.5250 N.am      10 UNK        -0.7319 
     21 O         -72.0025   30.7929  -75.8868 O.2       10 UNK        -0.5018 
     22 N         -73.0513   29.0219  -73.9168 N.am      10 UNK        -0.4509 
     23 C         -71.9840   29.1038  -73.1103 C.2       10 UNK         0.4899 
     24 O         -71.5593   30.1597  -72.6387 O.2       10 UNK        -0.4839 
     25 CA        -71.2712   27.7937  -72.7307 C.3       9 UNK         0.0222 
     26 CB        -71.7338   27.3243  -71.3416 C.3       9 UNK        -0.1966 
     27 N         -71.4513   26.6985  -73.6866 N.am      9 UNK        -0.4218 
     28 C         -70.9198   26.6362  -74.9153 C.2       9 UNK         0.5020 
     29 O         -70.2445   27.5345  -75.4182 O.2       9 UNK        -0.5274 
     30 CA        -71.1405   25.3363  -75.7038 C.3       8 UNK         0.0270 
     31 CB        -71.3819   24.1027  -74.8089 C.3       8 UNK        -0.1976 
     32 N         -72.2702   25.4912  -76.6180 N.am      8 UNK        -0.4313 
     33 C         -72.2268   25.2818  -77.9410 C.2       8 UNK         0.5041 
     34 O         -71.1917   25.0027  -78.5491 O.2       8 UNK        -0.5577 
     35 CA        -73.5455   25.3535  -78.7407 C.3       7 UNK         0.0284 
     36 CB        -73.9002   23.9689  -79.3100 C.3       7 UNK        -0.1958 
     37 N         -74.6907   25.8427  -77.9720 N.am      7 UNK        -0.4454 
     38 C         -74.9109   27.1224  -77.6472 C.2       7 UNK         0.5089 
     39 O         -74.2005   28.0576  -78.0141 O.2       7 UNK        -0.5125 
     40 CA        -76.0985   27.3946  -76.7082 C.3       6 UNK         0.0408 
     41 CB        -77.3971   27.5832  -77.5054 C.3       6 UNK        -0.1791 
     42 N         -76.2908   26.3510  -75.6959 N.am      6 UNK        -0.4762 
     43 C         -75.3830   25.9750  -74.7832 C.2       6 UNK         0.5007 
     44 O         -74.2780   26.5048  -74.6703 O.2       6 UNK        -0.5032 
     45 CA        -75.7347   24.7631  -73.9007 C.3       5 UNK         0.0783 
     46 C46       -76.6077   25.1481  -72.6837 C.3       11 UNK        -0.0857 
     47 S47       -75.6137   25.8967  -71.3522 S.3       11 UNK        -0.2512 
     48 C48       -76.9141   26.6860  -70.3429 C.3       11 UNK         0.0225 
     49 N         -76.3566   23.7102  -74.7031 N.am      5 UNK        -0.4615 
     50 C         -75.6797   22.8449  -75.4700 C.2       4 UNK         0.5053 
     51 O         -74.4525   22.8085  -75.5394 O.2       4 UNK        -0.5105 
     52 CA        -76.5066   21.8559  -76.3101 C.3       4 UNK         0.0263 
     53 CB        -76.7071   20.5389  -75.5438 C.3       4 UNK        -0.1981 
     54 N         -77.8115   22.3881  -76.7100 N.am      4 UNK        -0.4224 
     55 C         -77.9825   23.3994  -77.5724 C.2       3 UNK         0.4895 
     56 O         -77.0586   23.9730  -78.1495 O.2       3 UNK        -0.5091 
     57 CA        -79.4274   23.8857  -77.7818 C.3       3 UNK         0.0250 
     58 CB        -80.1448   23.0151  -78.8258 C.3       3 UNK        -0.1996 
     59 N         -80.2268   23.9415  -76.5490 N.am      3 UNK        -0.4254 
     60 C         -79.9068   24.6707  -75.4712 C.2       2 UNK         0.5004 
     61 O         -78.8529   25.3000  -75.3591 O.2       2 UNK        -0.5226 
     62 CA        -80.8966   24.6878  -74.3050 C.3       2 UNK         0.0269 
     63 CB        -80.5119   23.6447  -73.2406 C.3       2 UNK        -0.1926 
     64 N         -80.8532   26.0310  -73.7392 N.am      2 UNK        -0.4687 
     65 C         -81.8089   26.6198  -73.0165 C.2       1 UNK         0.5165 
     66 O         -82.8461   26.0555  -72.6622 O.2       1 UNK        -0.5079 
     67 H67       -83.0877   30.3789  -75.6377 H         1 UNK         0.0900 
     68 H68       -82.2623   29.4652  -76.9029 H         1 UNK         0.0900 
     69 H69       -81.4962   30.8930  -76.2015 H         1 UNK         0.0900 
     70 H70       -82.9992   29.3361  -73.6524 H         1 UNK         0.2959 
     71 H71       -80.5050   28.2515  -72.6182 H         1 UNK         0.1079 
     72 H72       -83.2708   28.3217  -71.3094 H         1 UNK         0.0837 
     73 H73       -81.7721   27.9131  -70.5162 H         1 UNK         0.0837 
     74 H74       -80.1904   31.2965  -69.6409 H         1 UNK         0.0685 
     75 H75       -80.6179   29.7245  -69.0101 H         1 UNK         0.0685 
     76 H76       -78.9611   28.0670  -69.3049 H         1 UNK         0.1434 
     77 H77       -76.3242   28.1195  -72.6961 H         1 UNK         0.1329 
     78 H78       -79.2842   31.1686  -72.2459 H         1 UNK         0.1335 
     79 H79       -76.9041   29.5266  -74.5724 H         1 UNK         0.0680 
     80 H80       -78.2215   30.6538  -74.4632 H         1 UNK         0.0680 
     81 H81       -74.8829   30.1185  -72.4734 H         1 UNK         0.1032 
     82 H82       -73.9894   31.5759  -72.7315 H         1 UNK         0.1032 
     83 H83       -74.5686   29.7081  -75.0706 H         1 UNK         0.0461 
     84 H84       -73.0162   32.9954  -76.1273 H         1 UNK         0.3453 
     85 H85       -74.3791   32.6431  -75.0865 H         1 UNK         0.3453 
     86 H86       -73.3393   28.1064  -74.2515 H         1 UNK         0.2984 
     87 H87       -70.2025   28.0113  -72.6756 H         1 UNK         0.0554 
     88 H88       -71.1814   26.4440  -71.0124 H         1 UNK         0.0847 
     89 H89       -72.7963   27.0790  -71.3330 H         1 UNK         0.0847 
     90 H90       -71.5749   28.1021  -70.5932 H         1 UNK         0.0847 
     91 H91       -72.0293   25.9285  -73.3837 H         1 UNK         0.3141 
     92 H92       -70.2177   25.1601  -76.2603 H         1 UNK         0.0743 
     93 H93       -70.5862   23.9855  -74.0718 H         1 UNK         0.0784 
     94 H94       -72.3308   24.1566  -74.2747 H         1 UNK         0.0784 
     95 H95       -71.4016   23.1907  -75.4061 H         1 UNK         0.0784 
     96 H96       -73.1434   25.7836  -76.1926 H         1 UNK         0.3213 
     97 H97       -73.3774   26.0341  -79.5782 H         1 UNK         0.0855 
     98 H98       -73.0930   23.5791  -79.9315 H         1 UNK         0.0814 
     99 H99       -74.7942   24.0124  -79.9326 H         1 UNK         0.0814 
    100 H100      -74.0810   23.2435  -78.5155 H         1 UNK         0.0814 
    101 H101      -75.3769   25.1516  -77.6863 H         1 UNK         0.3105 
    102 H102      -75.8906   28.3250  -76.1853 H         1 UNK         0.0547 
    103 H103      -77.2986   28.3962  -78.2256 H         1 UNK         0.0837 
    104 H104      -77.6625   26.6842  -78.0615 H         1 UNK         0.0837 
    105 H105      -78.2326   27.8295  -76.8494 H         1 UNK         0.0837 
    106 H106      -77.2018   25.8921  -75.6861 H         1 UNK         0.3020 
    107 H107      -74.7917   24.3638  -73.5193 H         1 UNK         0.1245 
    108 H108      -77.0738   24.2563  -72.2620 H         1 UNK         0.0781 
    109 H109      -77.4290   25.8075  -72.9715 H         1 UNK         0.0781 
    110 H110      -76.4748   26.9428  -69.3780 H         1 UNK         0.0836 
    111 H111      -77.6908   25.9472  -70.1391 H         1 UNK         0.0836 
    112 H112      -77.3652   23.7296  -74.7618 H         1 UNK         0.3022 
    113 H113      -75.9375   21.6412  -77.2174 H         1 UNK         0.0747 
    114 H114      -77.2221   19.7978  -76.1555 H         1 UNK         0.0793 
    115 H115      -75.7479   20.1068  -75.2545 H         1 UNK         0.0793 
    116 H116      -77.2869   20.6849  -74.6315 H         1 UNK         0.0793 
    117 H117      -78.6282   21.9765  -76.2823 H         1 UNK         0.3047 
    118 H118      -79.3700   24.9029  -78.1743 H         1 UNK         0.0822 
    119 H119      -81.1282   23.4173  -79.0701 H         1 UNK         0.0807 
    120 H120      -80.2776   21.9899  -78.4780 H         1 UNK         0.0807 
    121 H121      -79.5755   22.9727  -79.7556 H         1 UNK         0.0807 
    122 H122      -81.1021   23.4371  -76.5563 H         1 UNK         0.2946 
    123 H123      -81.9021   24.4859  -74.6811 H         1 UNK         0.1144 
    124 H124      -80.5099   22.6380  -73.6602 H         1 UNK         0.0793 
    125 H125      -81.2179   23.6463  -72.4101 H         1 UNK         0.0793 
    126 H126      -79.5183   23.8331  -72.8327 H         1 UNK         0.0793 
    127 H127      -80.0751   26.5915  -74.0737 H         1 UNK         0.2896 
@<TRIPOS>BOND
     1    1    2 1    
     2    1   67 1    
     3    1   68 1    
     4    1   69 1    
     5    2    3 2    
     6    2    4 am   BACKBONE|DICT|INTERRES
     7    4    5 1    
     8    4   70 1    
     9    5    6 1    
    10    5   65 1    
    11    5   71 1    
    12    6    7 1    
    13    6   72 1    
    14    6   73 1    
    15    7    8 1    
    16    8    9 1    
    17    8   74 1    
    18    8   75 1    
    19    9   10 ar   
    20    9   14 ar   
    21   10   11 ar   
    22   10   76 1    
    23   11   12 ar   
    24   11   48 1    
    25   12   13 ar   
    26   12   77 1    
    27   13   14 ar   
    28   13   15 1    
    29   14   78 1    
    30   15   16 1    
    31   15   79 1    
    32   15   80 1    
    33   16   17 1    
    34   17   18 1    
    35   17   81 1    
    36   17   82 1    
    37   18   19 1    
    38   18   22 1    
    39   18   83 1    
    40   19   20 am   BACKBONE|DICT|INTERRES
    41   19   21 2    
    42   20   84 1    
    43   20   85 1    
    44   22   23 am   BACKBONE|DICT|INTERRES
    45   22   86 1    
    46   23   24 2    
    47   23   25 1    
    48   25   26 1    
    49   25   27 1    
    50   25   87 1    
    51   26   88 1    
    52   26   89 1    
    53   26   90 1    
    54   27   28 am   BACKBONE|DICT|INTERRES
    55   27   91 1    
    56   28   29 2    
    57   28   30 1    
    58   30   31 1    
    59   30   32 1    
    60   30   92 1    
    61   31   93 1    
    62   31   94 1    
    63   31   95 1    
    64   32   33 am   BACKBONE|DICT|INTERRES
    65   32   96 1    
    66   33   34 2    
    67   33   35 1    
    68   35   36 1    
    69   35   37 1    
    70   35   97 1    
    71   36   98 1    
    72   36   99 1    
    73   36  100 1    
    74   37   38 am   BACKBONE|DICT|INTERRES
    75   37  101 1    
    76   38   39 2    
    77   38   40 1    
    78   40   41 1    
    79   40   42 1    
    80   40  102 1    
    81   41  103 1    
    82   41  104 1    
    83   41  105 1    
    84   42   43 am   BACKBONE|DICT|INTERRES
    85   42  106 1    
    86   43   44 2    
    87   43   45 1    
    88   45   46 1    
    89   45   49 1    
    90   45  107 1    
    91   46   47 1    
    92   46  108 1    
    93   46  109 1    
    94   47   48 1    
    95   48  110 1    
    96   48  111 1    
    97   49   50 am   BACKBONE|DICT|INTERRES
    98   49  112 1    
    99   50   51 2    
   100   50   52 1    
   101   52   53 1    
   102   52   54 1    
   103   52  113 1    
   104   53  114 1    
   105   53  115 1    
   106   53  116 1    
   107   54   55 am   BACKBONE|DICT|INTERRES
   108   54  117 1    
   109   55   56 2    
   110   55   57 1    
   111   57   58 1    
   112   57   59 1    
   113   57  118 1    
   114   58  119 1    
   115   58  120 1    
   116   58  121 1    
   117   59   60 am   BACKBONE|DICT|INTERRES
   118   59  122 1    
   119   60   61 2    
   120   60   62 1    
   121   62   63 1    
   122   62   64 1    
   123   62  123 1    
   124   63  124 1    
   125   63  125 1    
   126   63  126 1    
   127   64   65 am   BACKBONE|DICT|INTERRES
   128   64  127 1    
   129   65   66 2    
@<TRIPOS>SUBSTRUCTURE
     1 UNK         1 GROUP             0       ****    0 ROOT    
