@<TRIPOS>MOLECULE
3R135
127   129    1
SMALL
USER_CHARGES


@<TRIPOS>ATOM
      1 CA        -81.5456   24.5457  -70.0398 C.3       0 UNK        -0.1998 
      2 C         -82.2838   25.3934  -71.0643 C.2       0 UNK         0.4909 
      3 O         -83.4845   25.2082  -71.2630 O.2       0 UNK        -0.5240 
      4 N         -81.5733   26.3190  -71.7214 N.am      1 UNK        -0.4739 
      5 CA        -82.1231   27.2511  -72.7207 C.3       1 UNK         0.0864 
      6 C6        -81.2835   28.5492  -72.8191 C.3       11 UNK        -0.0881 
      7 S7        -81.1512   29.3983  -71.2079 S.3       11 UNK        -0.2682 
      8 C8        -79.7433   30.5245  -71.4922 C.3       11 UNK         0.0289 
      9 C9        -78.4317   29.8304  -71.8567 C.ar      11 UNK        -0.0687 
     10 C10       -78.0722   28.5933  -71.3076 C.ar      11 UNK        -0.0823 
     11 C11       -76.8737   27.9700  -71.6711 C.ar      11 UNK        -0.0830 
     12 C12       -76.0038   28.6208  -72.5527 C.ar      11 UNK        -0.1021 
     13 C13       -76.3329   29.8716  -73.0812 C.ar      11 UNK        -0.0753 
     14 C14       -77.5530   30.4618  -72.7415 C.ar      11 UNK        -0.0933 
     15 C15       -75.3651   30.6059  -73.9959 C.3       11 UNK         0.0166 
     16 S16       -74.3771   31.7984  -73.0400 S.3       11 UNK        -0.2615 
     17 C17       -73.5886   32.7897  -74.3581 C.3       11 UNK        -0.0865 
     18 CA        -72.0422   32.6565  -74.5007 C.3       10 UNK         0.0862 
     19 C         -71.2351   32.9680  -73.2017 C.2       10 UNK         0.5551 
     20 N         -70.1367   32.2793  -72.9195 N.am      10 UNK        -0.7319 
     21 O         -71.5777   33.8912  -72.4663 O.2       10 UNK        -0.5018 
     22 N         -71.6296   31.4817  -75.2912 N.am      10 UNK        -0.4509 
     23 C         -71.5911   30.1961  -74.9188 C.2       10 UNK         0.4899 
     24 O         -71.8657   29.7859  -73.7910 O.2       10 UNK        -0.4839 
     25 CA        -71.1688   29.2204  -76.0311 C.3       9 UNK         0.0222 
     26 CB        -69.6925   29.4100  -76.4431 C.3       9 UNK        -0.1966 
     27 N         -71.4778   27.8219  -75.7140 N.am      9 UNK        -0.4218 
     28 C         -70.8607   26.9887  -74.8590 C.2       9 UNK         0.5020 
     29 O         -69.8425   27.2734  -74.2258 O.2       9 UNK        -0.5274 
     30 CA        -71.4715   25.5834  -74.6692 C.3       8 UNK         0.0270 
     31 CB        -72.0164   25.4223  -73.2396 C.3       8 UNK        -0.1976 
     32 N         -72.5341   25.2720  -75.6323 N.am      8 UNK        -0.4313 
     33 C         -72.3192   24.9657  -76.9219 C.2       8 UNK         0.5041 
     34 O         -71.1946   24.8047  -77.3979 O.2       8 UNK        -0.5577 
     35 CA        -73.5397   24.8455  -77.8584 C.3       7 UNK         0.0284 
     36 CB        -73.8583   23.3657  -78.1282 C.3       7 UNK        -0.1958 
     37 N         -74.7539   25.5176  -77.3851 N.am      7 UNK        -0.4454 
     38 C         -74.8747   26.8184  -77.0839 C.2       7 UNK         0.5089 
     39 O         -73.9733   27.6424  -77.2360 O.2       7 UNK        -0.5125 
     40 CA        -76.1968   27.2608  -76.4295 C.3       6 UNK         0.0408 
     41 CB        -77.1987   27.7262  -77.4953 C.3       6 UNK        -0.1791 
     42 N         -76.8190   26.2343  -75.5838 N.am      6 UNK        -0.4762 
     43 C         -76.2313   25.6289  -74.5382 C.2       6 UNK         0.5007 
     44 O         -75.0661   25.8265  -74.1969 O.2       6 UNK        -0.5032 
     45 CA        -77.0776   24.5870  -73.7890 C.3       5 UNK         0.0783 
     46 C46       -78.2009   25.2594  -72.9503 C.3       11 UNK        -0.0857 
     47 S47       -77.8184   25.3617  -71.1707 S.3       11 UNK        -0.2512 
     48 C48       -76.4899   26.6147  -71.0859 C.3       11 UNK         0.0225 
     49 N         -77.6011   23.6213  -74.7564 N.am      5 UNK        -0.4615 
     50 C         -76.8861   22.6184  -75.2868 C.2       4 UNK         0.5053 
     51 O         -75.7530   22.3179  -74.9128 O.2       4 UNK        -0.5105 
     52 CA        -77.5268   21.8189  -76.4379 C.3       4 UNK         0.0263 
     53 CB        -78.1640   20.5270  -75.9017 C.3       4 UNK        -0.1981 
     54 N         -78.5330   22.5747  -77.1887 N.am      4 UNK        -0.4224 
     55 C         -78.2788   23.6513  -77.9473 C.2       3 UNK         0.4895 
     56 O         -77.1489   24.0872  -78.1597 O.2       3 UNK        -0.5091 
     57 CA        -79.4989   24.4089  -78.5046 C.3       3 UNK         0.0250 
     58 CB        -79.9019   23.8464  -79.8766 C.3       3 UNK        -0.1996 
     59 N         -80.6579   24.3895  -77.6024 N.am      3 UNK        -0.4254 
     60 C         -80.6532   24.8599  -76.3470 C.2       2 UNK         0.5004 
     61 O         -79.6741   25.4032  -75.8265 O.2       2 UNK        -0.5226 
     62 CA        -81.9157   24.5851  -75.5162 C.3       2 UNK         0.0269 
     63 CB        -82.0115   23.0882  -75.1703 C.3       2 UNK        -0.1926 
     64 N         -81.8965   25.3393  -74.2645 N.am      2 UNK        -0.4687 
     65 C         -82.3042   26.6055  -74.1145 C.2       1 UNK         0.5165 
     66 O         -82.8116   27.2629  -75.0251 O.2       1 UNK        -0.5079 
     67 H67       -81.4613   23.5182  -70.3923 H         1 UNK         0.0900 
     68 H68       -80.5423   24.9237  -69.8456 H         1 UNK         0.0900 
     69 H69       -82.0895   24.5393  -69.0956 H         1 UNK         0.0900 
     70 H70       -80.5932   26.4382  -71.5079 H         1 UNK         0.2959 
     71 H71       -83.1262   27.5375  -72.3960 H         1 UNK         0.1079 
     72 H72       -80.2866   28.3231  -73.2014 H         1 UNK         0.0837 
     73 H73       -81.7314   29.2490  -73.5276 H         1 UNK         0.0837 
     74 H74       -80.0278   31.2293  -72.2752 H         1 UNK         0.0685 
     75 H75       -79.5825   31.1141  -70.5890 H         1 UNK         0.0685 
     76 H76       -78.7300   28.1053  -70.6024 H         1 UNK         0.1434 
     77 H77       -75.0602   28.1630  -72.8186 H         1 UNK         0.1329 
     78 H78       -77.8064   31.4299  -73.1520 H         1 UNK         0.1335 
     79 H79       -75.9224   31.1256  -74.7768 H         1 UNK         0.0680 
     80 H80       -74.6996   29.9027  -74.4993 H         1 UNK         0.0680 
     81 H81       -73.8350   33.8329  -74.1529 H         1 UNK         0.1032 
     82 H82       -74.0653   32.5742  -75.3152 H         1 UNK         0.1032 
     83 H83       -71.7519   33.4814  -75.1527 H         1 UNK         0.0461 
     84 H84       -69.6116   32.5014  -72.0887 H         1 UNK         0.3453 
     85 H85       -69.8615   31.5061  -73.5033 H         1 UNK         0.3453 
     86 H86       -71.3512   31.6977  -76.2377 H         1 UNK         0.2984 
     87 H87       -71.7852   29.4517  -76.9012 H         1 UNK         0.0554 
     88 H88       -69.3914   28.6752  -77.1899 H         1 UNK         0.0847 
     89 H89       -69.0153   29.3207  -75.5933 H         1 UNK         0.0847 
     90 H90       -69.5275   30.3954  -76.8796 H         1 UNK         0.0847 
     91 H91       -72.3288   27.4872  -76.1563 H         1 UNK         0.3141 
     92 H92       -70.6662   24.8583  -74.8049 H         1 UNK         0.0743 
     93 H93       -72.7537   26.1899  -73.0012 H         1 UNK         0.0784 
     94 H94       -72.4842   24.4481  -73.0957 H         1 UNK         0.0784 
     95 H95       -71.2138   25.5092  -72.5063 H         1 UNK         0.0784 
     96 H96       -73.4882   25.3927  -75.3007 H         1 UNK         0.3213 
     97 H97       -73.2617   25.3141  -78.8045 H         1 UNK         0.0855 
     98 H98       -74.1917   22.8554  -77.2239 H         1 UNK         0.0814 
     99 H99       -72.9792   22.8356  -78.4973 H         1 UNK         0.0814 
    100 H100      -74.6381   23.2577  -78.8821 H         1 UNK         0.0814 
    101 H101      -75.5886   24.9421  -77.3154 H         1 UNK         0.3105 
    102 H102      -75.9723   28.1101  -75.7818 H         1 UNK         0.0547 
    103 H103      -76.7948   28.5617  -78.0684 H         1 UNK         0.0837 
    104 H104      -77.4294   26.9301  -78.2027 H         1 UNK         0.0837 
    105 H105      -78.1338   28.0617  -77.0463 H         1 UNK         0.0837 
    106 H106      -77.7865   25.9984  -75.7879 H         1 UNK         0.3020 
    107 H107      -76.4074   24.0484  -73.1144 H         1 UNK         0.1245 
    108 H108      -79.1167   24.6709  -73.0203 H         1 UNK         0.0781 
    109 H109      -78.4776   26.2487  -73.3220 H         1 UNK         0.0781 
    110 H110      -75.5999   26.2174  -71.5754 H         1 UNK         0.0836 
    111 H111      -76.2172   26.7573  -70.0395 H         1 UNK         0.0836 
    112 H112      -78.4967   23.8557  -75.1655 H         1 UNK         0.3022 
    113 H113      -76.7271   21.5470  -77.1304 H         1 UNK         0.0747 
    114 H114      -78.5506   19.9084  -76.7119 H         1 UNK         0.0793 
    115 H115      -77.4313   19.9265  -75.3604 H         1 UNK         0.0793 
    116 H116      -78.9854   20.7354  -75.2149 H         1 UNK         0.0793 
    117 H117      -79.4931   22.2824  -77.0827 H         1 UNK         0.3047 
    118 H118      -79.2062   25.4516  -78.6371 H         1 UNK         0.0822 
    119 H119      -80.7048   24.4314  -80.3255 H         1 UNK         0.0807 
    120 H120      -80.2372   22.8107  -79.8085 H         1 UNK         0.0807 
    121 H121      -79.0598   23.8713  -80.5701 H         1 UNK         0.0807 
    122 H122      -81.4973   23.9530  -77.9569 H         1 UNK         0.2946 
    123 H123      -82.7898   24.8768  -76.1034 H         1 UNK         0.1144 
    124 H124      -82.0969   22.4752  -76.0683 H         1 UNK         0.0793 
    125 H125      -82.8913   22.8806  -74.5605 H         1 UNK         0.0793 
    126 H126      -81.1360   22.7415  -74.6191 H         1 UNK         0.0793 
    127 H127      -81.4746   24.8886  -73.4671 H         1 UNK         0.2896 
@<TRIPOS>BOND
     1    1    2 1    
     2    1   67 1    
     3    1   68 1    
     4    1   69 1    
     5    2    3 2    
     6    2    4 am   BACKBONE|DICT|INTERRES
     7    4    5 1    
     8    4   70 1    
     9    5    6 1    
    10    5   65 1    
    11    5   71 1    
    12    6    7 1    
    13    6   72 1    
    14    6   73 1    
    15    7    8 1    
    16    8    9 1    
    17    8   74 1    
    18    8   75 1    
    19    9   10 ar   
    20    9   14 ar   
    21   10   11 ar   
    22   10   76 1    
    23   11   12 ar   
    24   11   48 1    
    25   12   13 ar   
    26   12   77 1    
    27   13   14 ar   
    28   13   15 1    
    29   14   78 1    
    30   15   16 1    
    31   15   79 1    
    32   15   80 1    
    33   16   17 1    
    34   17   18 1    
    35   17   81 1    
    36   17   82 1    
    37   18   19 1    
    38   18   22 1    
    39   18   83 1    
    40   19   20 am   BACKBONE|DICT|INTERRES
    41   19   21 2    
    42   20   84 1    
    43   20   85 1    
    44   22   23 am   BACKBONE|DICT|INTERRES
    45   22   86 1    
    46   23   24 2    
    47   23   25 1    
    48   25   26 1    
    49   25   27 1    
    50   25   87 1    
    51   26   88 1    
    52   26   89 1    
    53   26   90 1    
    54   27   28 am   BACKBONE|DICT|INTERRES
    55   27   91 1    
    56   28   29 2    
    57   28   30 1    
    58   30   31 1    
    59   30   32 1    
    60   30   92 1    
    61   31   93 1    
    62   31   94 1    
    63   31   95 1    
    64   32   33 am   BACKBONE|DICT|INTERRES
    65   32   96 1    
    66   33   34 2    
    67   33   35 1    
    68   35   36 1    
    69   35   37 1    
    70   35   97 1    
    71   36   98 1    
    72   36   99 1    
    73   36  100 1    
    74   37   38 am   BACKBONE|DICT|INTERRES
    75   37  101 1    
    76   38   39 2    
    77   38   40 1    
    78   40   41 1    
    79   40   42 1    
    80   40  102 1    
    81   41  103 1    
    82   41  104 1    
    83   41  105 1    
    84   42   43 am   BACKBONE|DICT|INTERRES
    85   42  106 1    
    86   43   44 2    
    87   43   45 1    
    88   45   46 1    
    89   45   49 1    
    90   45  107 1    
    91   46   47 1    
    92   46  108 1    
    93   46  109 1    
    94   47   48 1    
    95   48  110 1    
    96   48  111 1    
    97   49   50 am   BACKBONE|DICT|INTERRES
    98   49  112 1    
    99   50   51 2    
   100   50   52 1    
   101   52   53 1    
   102   52   54 1    
   103   52  113 1    
   104   53  114 1    
   105   53  115 1    
   106   53  116 1    
   107   54   55 am   BACKBONE|DICT|INTERRES
   108   54  117 1    
   109   55   56 2    
   110   55   57 1    
   111   57   58 1    
   112   57   59 1    
   113   57  118 1    
   114   58  119 1    
   115   58  120 1    
   116   58  121 1    
   117   59   60 am   BACKBONE|DICT|INTERRES
   118   59  122 1    
   119   60   61 2    
   120   60   62 1    
   121   62   63 1    
   122   62   64 1    
   123   62  123 1    
   124   63  124 1    
   125   63  125 1    
   126   63  126 1    
   127   64   65 am   BACKBONE|DICT|INTERRES
   128   64  127 1    
   129   65   66 2    
@<TRIPOS>SUBSTRUCTURE
     1 UNK         1 GROUP             0       ****    0 ROOT    
