@<TRIPOS>MOLECULE
3R135
127   129    1
SMALL
USER_CHARGES


@<TRIPOS>ATOM
      1 CA        -81.9171   25.0707  -70.2011 C.3       0 UNK        -0.1998 
      2 C         -82.3814   25.9968  -71.3148 C.2       0 UNK         0.4909 
      3 O         -83.5686   26.0169  -71.6398 O.2       0 UNK        -0.5240 
      4 N         -81.4521   26.7592  -71.9055 N.am      1 UNK        -0.4739 
      5 CA        -81.7193   27.7309  -72.9794 C.3       1 UNK         0.0864 
      6 C6        -80.7653   28.9532  -72.9051 C.3       11 UNK        -0.0881 
      7 S7        -80.9411   29.8290  -71.3064 S.3       11 UNK        -0.2682 
      8 C8        -79.3456   30.7050  -71.1212 C.3       11 UNK         0.0289 
      9 C9        -78.1030   29.8156  -71.0503 C.ar      11 UNK        -0.0687 
     10 C10       -78.1585   28.4836  -70.6244 C.ar      11 UNK        -0.0823 
     11 C11       -77.0220   27.6721  -70.6755 C.ar      11 UNK        -0.0830 
     12 C12       -75.8021   28.2201  -71.0840 C.ar      11 UNK        -0.1021 
     13 C13       -75.7118   29.5644  -71.4561 C.ar      11 UNK        -0.0753 
     14 C14       -76.8699   30.3527  -71.4344 C.ar      11 UNK        -0.0933 
     15 C15       -74.3489   30.1348  -71.8554 C.3       11 UNK         0.0166 
     16 S16       -74.4137   31.4647  -73.1039 S.3       11 UNK        -0.2615 
     17 C17       -74.8946   30.5343  -74.6007 C.3       11 UNK        -0.0865 
     18 CA        -73.9051   30.6042  -75.8023 C.3       10 UNK         0.0862 
     19 C         -73.6322   32.0437  -76.3394 C.2       10 UNK         0.5551 
     20 N         -72.4543   32.3417  -76.8738 N.am      10 UNK        -0.7319 
     21 O         -74.5217   32.8916  -76.3265 O.2       10 UNK        -0.5018 
     22 N         -72.7444   29.6992  -75.6801 N.am      10 UNK        -0.4509 
     23 C         -71.6296   29.8798  -74.9574 C.2       10 UNK         0.4899 
     24 O         -71.4253   30.8493  -74.2270 O.2       10 UNK        -0.4839 
     25 CA        -70.5211   28.8223  -75.1390 C.3       9 UNK         0.0222 
     26 CB        -69.3291   29.0254  -74.1780 C.3       9 UNK        -0.1966 
     27 N         -71.0010   27.4376  -75.0794 N.am      9 UNK        -0.4218 
     28 C         -71.5870   26.8083  -74.0511 C.2       9 UNK         0.5020 
     29 O         -71.8474   27.3471  -72.9737 O.2       9 UNK        -0.5274 
     30 CA        -71.8932   25.3070  -74.2593 C.3       8 UNK         0.0270 
     31 CB        -72.6253   24.6787  -73.0583 C.3       8 UNK        -0.1976 
     32 N         -72.6624   25.0435  -75.4804 N.am      8 UNK        -0.4313 
     33 C         -72.1835   25.0762  -76.7316 C.2       8 UNK         0.5041 
     34 O         -71.0007   25.2961  -76.9981 O.2       8 UNK        -0.5577 
     35 CA        -73.1932   24.8995  -77.8790 C.3       7 UNK         0.0284 
     36 CB        -73.4345   23.4101  -78.1699 C.3       7 UNK        -0.1958 
     37 N         -74.4706   25.5684  -77.6194 N.am      7 UNK        -0.4454 
     38 C         -74.6221   26.8926  -77.4687 C.2       7 UNK         0.5089 
     39 O         -73.7103   27.7088  -77.6097 O.2       7 UNK        -0.5125 
     40 CA        -76.0150   27.3839  -77.0329 C.3       6 UNK         0.0408 
     41 CB        -76.9668   27.4845  -78.2336 C.3       6 UNK        -0.1791 
     42 N         -76.6079   26.5476  -75.9854 N.am      6 UNK        -0.4762 
     43 C         -76.0697   26.3660  -74.7696 C.2       6 UNK         0.5007 
     44 O         -75.0418   26.9203  -74.3885 O.2       6 UNK        -0.5032 
     45 CA        -76.7721   25.3716  -73.8289 C.3       5 UNK         0.0783 
     46 C46       -77.9618   26.0464  -73.1104 C.3       11 UNK        -0.0857 
     47 S47       -78.3036   25.3114  -71.4758 S.3       11 UNK        -0.2512 
     48 C48       -77.1299   26.1830  -70.3719 C.3       11 UNK         0.0225 
     49 N         -77.1758   24.1614  -74.5464 N.am      5 UNK        -0.4615 
     50 C         -76.3264   23.2634  -75.0611 C.2       4 UNK         0.5053 
     51 O         -75.1058   23.3150  -74.9153 O.2       4 UNK        -0.5105 
     52 CA        -76.9439   22.1486  -75.9232 C.3       4 UNK         0.0263 
     53 CB        -77.4569   21.0016  -75.0383 C.3       4 UNK        -0.1981 
     54 N         -78.0316   22.6361  -76.7780 N.am      4 UNK        -0.4224 
     55 C         -77.8685   23.5066  -77.7858 C.2       3 UNK         0.4895 
     56 O         -76.7723   23.9330  -78.1462 O.2       3 UNK        -0.5091 
     57 CA        -79.1413   24.0274  -78.4800 C.3       3 UNK         0.0250 
     58 CB        -79.5252   23.1121  -79.6532 C.3       3 UNK        -0.1996 
     59 N         -80.2914   24.1829  -77.5804 N.am      3 UNK        -0.4254 
     60 C         -80.3175   24.9697  -76.4944 C.2       2 UNK         0.5004 
     61 O         -79.3642   25.6688  -76.1463 O.2       2 UNK        -0.5226 
     62 CA        -81.5987   24.9118  -75.6415 C.3       2 UNK         0.0269 
     63 CB        -81.8934   23.4706  -75.1819 C.3       2 UNK        -0.1926 
     64 N         -81.5249   25.7520  -74.4438 N.am      2 UNK        -0.4687 
     65 C         -81.7432   27.0735  -74.3827 C.2       1 UNK         0.5165 
     66 O         -81.9993   27.7628  -75.3712 O.2       1 UNK        -0.5079 
     67 H67       -81.9247   24.0366  -70.5443 H         1 UNK         0.0900 
     68 H68       -82.5839   25.1508  -69.3430 H         1 UNK         0.0900 
     69 H69       -80.9093   25.3126  -69.8646 H         1 UNK         0.0900 
     70 H70       -80.4883   26.6847  -71.6106 H         1 UNK         0.2959 
     71 H71       -82.7311   28.1183  -72.8374 H         1 UNK         0.1079 
     72 H72       -79.7306   28.6422  -73.0513 H         1 UNK         0.0837 
     73 H73       -80.9859   29.6663  -73.7017 H         1 UNK         0.0837 
     74 H74       -79.2501   31.4053  -71.9527 H         1 UNK         0.0685 
     75 H75       -79.3879   31.3077  -70.2133 H         1 UNK         0.0685 
     76 H76       -79.0968   28.0520  -70.3074 H         1 UNK         0.1434 
     77 H77       -74.9196   27.5957  -71.1289 H         1 UNK         0.1329 
     78 H78       -76.8186   31.3915  -71.7287 H         1 UNK         0.1335 
     79 H79       -73.8666   30.5270  -70.9595 H         1 UNK         0.0680 
     80 H80       -73.7000   29.3425  -72.2337 H         1 UNK         0.0680 
     81 H81       -75.0699   29.4920  -74.3363 H         1 UNK         0.1032 
     82 H82       -75.8697   30.9119  -74.9127 H         1 UNK         0.1032 
     83 H83       -74.4501   30.1643  -76.6363 H         1 UNK         0.0461 
     84 H84       -72.2952   33.2689  -77.2352 H         1 UNK         0.3453 
     85 H85       -71.7174   31.6561  -76.8949 H         1 UNK         0.3453 
     86 H86       -72.8070   28.8732  -76.2678 H         1 UNK         0.2984 
     87 H87       -70.1432   28.9597  -76.1530 H         1 UNK         0.0554 
     88 H88       -68.5448   28.2897  -74.3555 H         1 UNK         0.0847 
     89 H89       -69.6335   28.9466  -73.1338 H         1 UNK         0.0847 
     90 H90       -68.8819   30.0112  -74.3115 H         1 UNK         0.0847 
     91 H91       -70.8494   26.8761  -75.9149 H         1 UNK         0.3141 
     92 H92       -70.9299   24.8013  -74.3522 H         1 UNK         0.0743 
     93 H93       -73.5866   25.1596  -72.8781 H         1 UNK         0.0784 
     94 H94       -72.8061   23.6150  -73.2139 H         1 UNK         0.0784 
     95 H95       -72.0361   24.7768  -72.1457 H         1 UNK         0.0784 
     96 H96       -73.6483   24.8450  -75.3509 H         1 UNK         0.3213 
     97 H97       -72.7594   25.3547  -78.7719 H         1 UNK         0.0855 
     98 H98       -73.8864   22.8992  -77.3195 H         1 UNK         0.0814 
     99 H99       -72.4973   22.9002  -78.3969 H         1 UNK         0.0814 
    100 H100      -74.0933   23.2756  -79.0280 H         1 UNK         0.0814 
    101 H101      -75.2965   24.9767  -77.5620 H         1 UNK         0.3105 
    102 H102      -75.9040   28.3839  -76.6132 H         1 UNK         0.0547 
    103 H103      -76.5916   28.2019  -78.9644 H         1 UNK         0.0837 
    104 H104      -77.0749   26.5298  -78.7467 H         1 UNK         0.0837 
    105 H105      -77.9593   27.8179  -77.9298 H         1 UNK         0.0837 
    106 H106      -77.4984   26.1001  -76.1914 H         1 UNK         0.3020 
    107 H107      -76.0295   25.0847  -73.0812 H         1 UNK         0.1245 
    108 H108      -78.8683   25.9574  -73.7039 H         1 UNK         0.0781 
    109 H109      -77.8159   27.1213  -73.0127 H         1 UNK         0.0781 
    110 H110      -76.1540   25.7024  -70.4572 H         1 UNK         0.0836 
    111 H111      -77.4471   26.0481  -69.3371 H         1 UNK         0.0836 
    112 H112      -78.1588   24.0770  -74.7568 H         1 UNK         0.3022 
    113 H113      -76.1566   21.7560  -76.5704 H         1 UNK         0.0747 
    114 H114      -77.8253   20.1706  -75.6401 H         1 UNK         0.0793 
    115 H115      -76.6581   20.6117  -74.4056 H         1 UNK         0.0793 
    116 H116      -78.2647   21.3250  -74.3805 H         1 UNK         0.0793 
    117 H117      -78.9658   22.3232  -76.5592 H         1 UNK         0.3047 
    118 H118      -78.9111   25.0150  -78.8833 H         1 UNK         0.0822 
    119 H119      -80.3622   23.5215  -80.2194 H         1 UNK         0.0807 
    120 H120      -79.8039   22.1134  -79.3145 H         1 UNK         0.0807 
    121 H121      -78.6918   22.9996  -80.3484 H         1 UNK         0.0807 
    122 H122      -81.1134   23.6414  -77.8069 H         1 UNK         0.2946 
    123 H123      -82.4256   25.2627  -76.2634 H         1 UNK         0.1144 
    124 H124      -82.0742   22.8043  -76.0259 H         1 UNK         0.0793 
    125 H125      -82.7864   23.4315  -74.5573 H         1 UNK         0.0793 
    126 H126      -81.0671   23.0528  -74.6049 H         1 UNK         0.0793 
    127 H127      -81.3110   25.2817  -73.5773 H         1 UNK         0.2896 
@<TRIPOS>BOND
     1    1    2 1    
     2    1   67 1    
     3    1   68 1    
     4    1   69 1    
     5    2    3 2    
     6    2    4 am   BACKBONE|DICT|INTERRES
     7    4    5 1    
     8    4   70 1    
     9    5    6 1    
    10    5   65 1    
    11    5   71 1    
    12    6    7 1    
    13    6   72 1    
    14    6   73 1    
    15    7    8 1    
    16    8    9 1    
    17    8   74 1    
    18    8   75 1    
    19    9   10 ar   
    20    9   14 ar   
    21   10   11 ar   
    22   10   76 1    
    23   11   12 ar   
    24   11   48 1    
    25   12   13 ar   
    26   12   77 1    
    27   13   14 ar   
    28   13   15 1    
    29   14   78 1    
    30   15   16 1    
    31   15   79 1    
    32   15   80 1    
    33   16   17 1    
    34   17   18 1    
    35   17   81 1    
    36   17   82 1    
    37   18   19 1    
    38   18   22 1    
    39   18   83 1    
    40   19   20 am   BACKBONE|DICT|INTERRES
    41   19   21 2    
    42   20   84 1    
    43   20   85 1    
    44   22   23 am   BACKBONE|DICT|INTERRES
    45   22   86 1    
    46   23   24 2    
    47   23   25 1    
    48   25   26 1    
    49   25   27 1    
    50   25   87 1    
    51   26   88 1    
    52   26   89 1    
    53   26   90 1    
    54   27   28 am   BACKBONE|DICT|INTERRES
    55   27   91 1    
    56   28   29 2    
    57   28   30 1    
    58   30   31 1    
    59   30   32 1    
    60   30   92 1    
    61   31   93 1    
    62   31   94 1    
    63   31   95 1    
    64   32   33 am   BACKBONE|DICT|INTERRES
    65   32   96 1    
    66   33   34 2    
    67   33   35 1    
    68   35   36 1    
    69   35   37 1    
    70   35   97 1    
    71   36   98 1    
    72   36   99 1    
    73   36  100 1    
    74   37   38 am   BACKBONE|DICT|INTERRES
    75   37  101 1    
    76   38   39 2    
    77   38   40 1    
    78   40   41 1    
    79   40   42 1    
    80   40  102 1    
    81   41  103 1    
    82   41  104 1    
    83   41  105 1    
    84   42   43 am   BACKBONE|DICT|INTERRES
    85   42  106 1    
    86   43   44 2    
    87   43   45 1    
    88   45   46 1    
    89   45   49 1    
    90   45  107 1    
    91   46   47 1    
    92   46  108 1    
    93   46  109 1    
    94   47   48 1    
    95   48  110 1    
    96   48  111 1    
    97   49   50 am   BACKBONE|DICT|INTERRES
    98   49  112 1    
    99   50   51 2    
   100   50   52 1    
   101   52   53 1    
   102   52   54 1    
   103   52  113 1    
   104   53  114 1    
   105   53  115 1    
   106   53  116 1    
   107   54   55 am   BACKBONE|DICT|INTERRES
   108   54  117 1    
   109   55   56 2    
   110   55   57 1    
   111   57   58 1    
   112   57   59 1    
   113   57  118 1    
   114   58  119 1    
   115   58  120 1    
   116   58  121 1    
   117   59   60 am   BACKBONE|DICT|INTERRES
   118   59  122 1    
   119   60   61 2    
   120   60   62 1    
   121   62   63 1    
   122   62   64 1    
   123   62  123 1    
   124   63  124 1    
   125   63  125 1    
   126   63  126 1    
   127   64   65 am   BACKBONE|DICT|INTERRES
   128   64  127 1    
   129   65   66 2    
@<TRIPOS>SUBSTRUCTURE
     1 UNK         1 GROUP             0       ****    0 ROOT    
