@<TRIPOS>MOLECULE
3R135
127   129    1
SMALL
USER_CHARGES


@<TRIPOS>ATOM
      1 CA        -86.7064   28.6561  -75.9669 C.3       0 UNK        -0.1998 
      2 C         -85.2338   28.2739  -75.9474 C.2       0 UNK         0.4909 
      3 O         -84.7731   27.5659  -76.8440 O.2       0 UNK        -0.5240 
      4 N         -84.4901   28.7437  -74.9376 N.am      1 UNK        -0.4739 
      5 CA        -83.0761   28.4192  -74.7231 C.3       1 UNK         0.0864 
      6 C6        -82.4009   29.4720  -73.8073 C.3       11 UNK        -0.0881 
      7 S7        -80.5786   29.4678  -73.9436 S.3       11 UNK        -0.2682 
      8 C8        -80.1124   29.1301  -72.2128 C.3       11 UNK         0.0289 
      9 C9        -78.6360   28.7883  -72.0293 C.ar      11 UNK        -0.0687 
     10 C10       -78.2750   27.7511  -71.1640 C.ar      11 UNK        -0.0823 
     11 C11       -76.9314   27.4264  -70.9561 C.ar      11 UNK        -0.0830 
     12 C12       -75.9398   28.1457  -71.6291 C.ar      11 UNK        -0.1021 
     13 C13       -76.2825   29.1887  -72.4939 C.ar      11 UNK        -0.0753 
     14 C14       -77.6303   29.5124  -72.6806 C.ar      11 UNK        -0.0933 
     15 C15       -75.2054   29.9402  -73.2618 C.3       11 UNK         0.0166 
     16 S16       -74.4158   31.2371  -72.2588 S.3       11 UNK        -0.2615 
     17 C17       -72.9314   30.3786  -71.6255 C.3       11 UNK        -0.0865 
     18 CA        -71.6723   30.6578  -72.4912 C.3       10 UNK         0.0862 
     19 C         -70.3752   30.1323  -71.8061 C.2       10 UNK         0.5551 
     20 N         -69.5543   29.3098  -72.4502 N.am      10 UNK        -0.7319 
     21 O         -70.1011   30.4889  -70.6629 O.2       10 UNK        -0.5018 
     22 N         -71.8547   30.1760  -73.8686 N.am      10 UNK        -0.4509 
     23 C         -71.2889   30.7052  -74.9587 C.2       10 UNK         0.4899 
     24 O         -70.5881   31.7185  -74.9457 O.2       10 UNK        -0.4839 
     25 CA        -71.5546   29.9608  -76.2840 C.3       9 UNK         0.0222 
     26 CB        -70.5270   30.3102  -77.3812 C.3       9 UNK        -0.1966 
     27 N         -71.6668   28.5025  -76.1266 N.am      9 UNK        -0.4218 
     28 C         -70.7363   27.6688  -75.6282 C.2       9 UNK         0.5020 
     29 O         -69.6498   28.0503  -75.1902 O.2       9 UNK        -0.5274 
     30 CA        -71.0648   26.1641  -75.5595 C.3       8 UNK         0.0270 
     31 CB        -71.1261   25.6970  -74.0948 C.3       8 UNK        -0.1976 
     32 N         -72.3140   25.8061  -76.2385 N.am      8 UNK        -0.4313 
     33 C         -72.4418   25.6875  -77.5699 C.2       8 UNK         0.5041 
     34 O         -71.4936   25.7873  -78.3497 O.2       8 UNK        -0.5577 
     35 CA        -73.8507   25.4416  -78.1500 C.3       7 UNK         0.0284 
     36 CB        -74.0162   23.9610  -78.5298 C.3       7 UNK        -0.1958 
     37 N         -74.9602   25.8356  -77.2763 N.am      7 UNK        -0.4454 
     38 C         -75.1637   27.0566  -76.7606 C.2       7 UNK         0.5089 
     39 O         -74.4582   28.0344  -77.0119 O.2       7 UNK        -0.5125 
     40 CA        -76.2859   27.1863  -75.7164 C.3       6 UNK         0.0408 
     41 CB        -77.6164   27.5664  -76.3793 C.3       6 UNK        -0.1791 
     42 N         -76.4669   25.9858  -74.8933 N.am      6 UNK        -0.4762 
     43 C         -75.5210   25.4118  -74.1332 C.2       6 UNK         0.5007 
     44 O         -74.3652   25.8296  -74.0610 O.2       6 UNK        -0.5032 
     45 CA        -75.9080   24.1188  -73.3909 C.3       5 UNK         0.0783 
     46 C46       -76.6725   24.3909  -72.0739 C.3       11 UNK        -0.0857 
     47 S47       -75.5642   24.9914  -70.7552 S.3       11 UNK        -0.2512 
     48 C48       -76.5593   26.3103  -69.9871 C.3       11 UNK         0.0225 
     49 N         -76.6775   23.2480  -74.2782 N.am      5 UNK        -0.4615 
     50 C         -76.1451   22.3245  -75.0876 C.2       4 UNK         0.5053 
     51 O         -74.9443   22.0558  -75.1229 O.2       4 UNK        -0.5105 
     52 CA        -77.1086   21.5669  -76.0200 C.3       4 UNK         0.0263 
     53 CB        -77.5423   20.2401  -75.3770 C.3       4 UNK        -0.1981 
     54 N         -78.3007   22.3342  -76.3939 N.am      4 UNK        -0.4224 
     55 C         -78.2833   23.4423  -77.1469 C.2       3 UNK         0.4895 
     56 O         -77.2574   23.9464  -77.6039 O.2       3 UNK        -0.5091 
     57 CA        -79.6367   24.1293  -77.4013 C.3       3 UNK         0.0250 
     58 CB        -80.3902   23.4195  -78.5379 C.3       3 UNK        -0.1996 
     59 N         -80.5241   24.2637  -76.2353 N.am      3 UNK        -0.4254 
     60 C         -80.1803   24.6942  -75.0123 C.2       2 UNK         0.5004 
     61 O         -79.0226   24.9026  -74.6518 O.2       2 UNK        -0.5226 
     62 CA        -81.3291   25.0495  -74.0673 C.3       2 UNK         0.0269 
     63 CB        -80.9147   24.9867  -72.5830 C.3       2 UNK        -0.1926 
     64 N         -81.7242   26.4068  -74.4223 N.am      2 UNK        -0.4687 
     65 C         -82.9097   26.9761  -74.1918 C.2       1 UNK         0.5165 
     66 O         -83.8303   26.4196  -73.5865 O.2       1 UNK        -0.5079 
     67 H67       -86.9737   29.2936  -75.1244 H         1 UNK         0.0900 
     68 H68       -87.3264   27.7610  -75.9246 H         1 UNK         0.0900 
     69 H69       -86.9431   29.1919  -76.8858 H         1 UNK         0.0900 
     70 H70       -84.9304   29.2920  -74.2124 H         1 UNK         0.2959 
     71 H71       -82.5904   28.4648  -75.7012 H         1 UNK         0.1079 
     72 H72       -82.7148   29.3466  -72.7691 H         1 UNK         0.0837 
     73 H73       -82.7279   30.4730  -74.0937 H         1 UNK         0.0837 
     74 H74       -80.3522   30.0013  -71.6021 H         1 UNK         0.0685 
     75 H75       -80.7307   28.3092  -71.8456 H         1 UNK         0.0685 
     76 H76       -79.0444   27.1988  -70.6419 H         1 UNK         0.1434 
     77 H77       -74.9023   27.8808  -71.4852 H         1 UNK         0.1329 
     78 H78       -77.8977   30.3224  -73.3450 H         1 UNK         0.1335 
     79 H79       -75.6376   30.4083  -74.1477 H         1 UNK         0.0680 
     80 H80       -74.4603   29.2360  -73.6327 H         1 UNK         0.0680 
     81 H81       -72.7749   30.7290  -70.6034 H         1 UNK         0.1032 
     82 H82       -73.1146   29.3070  -71.5459 H         1 UNK         0.1032 
     83 H83       -71.5506   31.7420  -72.5326 H         1 UNK         0.0461 
     84 H84       -68.7202   28.9906  -71.9843 H         1 UNK         0.3453 
     85 H85       -69.7351   29.0196  -73.4046 H         1 UNK         0.3453 
     86 H86       -72.3877   29.3273  -73.9758 H         1 UNK         0.2984 
     87 H87       -72.5321   30.3011  -76.6288 H         1 UNK         0.0554 
     88 H88       -70.7475   29.7875  -78.3119 H         1 UNK         0.0847 
     89 H89       -69.5115   30.0485  -77.0820 H         1 UNK         0.0847 
     90 H90       -70.5357   31.3783  -77.6017 H         1 UNK         0.0847 
     91 H91       -72.5494   28.1078  -76.4410 H         1 UNK         0.3141 
     92 H92       -70.2442   25.6322  -76.0455 H         1 UNK         0.0743 
     93 H93       -71.3932   24.6427  -74.0215 H         1 UNK         0.0784 
     94 H94       -70.1584   25.8203  -73.6068 H         1 UNK         0.0784 
     95 H95       -71.8515   26.2695  -73.5161 H         1 UNK         0.0784 
     96 H96       -73.1380   25.7247  -75.6487 H         1 UNK         0.3213 
     97 H97       -73.9288   26.0403  -79.0597 H         1 UNK         0.0855 
     98 H98       -73.2060   23.6283  -79.1803 H         1 UNK         0.0814 
     99 H99       -74.9491   23.7911  -79.0675 H         1 UNK         0.0814 
    100 H100      -74.0147   23.3172  -77.6490 H         1 UNK         0.0814 
    101 H101      -75.6409   25.1138  -77.0598 H         1 UNK         0.3105 
    102 H102      -76.0071   27.9943  -75.0431 H         1 UNK         0.0547 
    103 H103      -77.5218   28.5002  -76.9349 H         1 UNK         0.0837 
    104 H104      -77.9463   26.8012  -77.0803 H         1 UNK         0.0837 
    105 H105      -78.4020   27.7089  -75.6368 H         1 UNK         0.0837 
    106 H106      -77.4037   25.5838  -74.8754 H         1 UNK         0.3020 
    107 H107      -74.9758   23.6097  -73.1332 H         1 UNK         0.1245 
    108 H108      -77.1246   23.4672  -71.7092 H         1 UNK         0.0781 
    109 H109      -77.5022   25.0806  -72.2381 H         1 UNK         0.0781 
    110 H110      -75.9935   26.7390  -69.1589 H         1 UNK         0.0836 
    111 H111      -77.4512   25.8614  -69.5470 H         1 UNK         0.0836 
    112 H112      -77.6628   23.4708  -74.3683 H         1 UNK         0.3022 
    113 H113      -76.5597   21.3392  -76.9362 H         1 UNK         0.0747 
    114 H114      -78.1527   19.6485  -76.0596 H         1 UNK         0.0793 
    115 H115      -76.6752   19.6333  -75.1123 H         1 UNK         0.0793 
    116 H116      -78.1171   20.4022  -74.4645 H         1 UNK         0.0793 
    117 H117      -79.1893   22.0023  -76.0480 H         1 UNK         0.3047 
    118 H118      -79.4169   25.1426  -77.7396 H         1 UNK         0.0822 
    119 H119      -80.7089   22.4173  -78.2487 H         1 UNK         0.0807 
    120 H120      -79.7597   23.3185  -79.4228 H         1 UNK         0.0807 
    121 H121      -81.2757   23.9796  -78.8388 H         1 UNK         0.0807 
    122 H122      -81.5087   24.1420  -76.4256 H         1 UNK         0.2946 
    123 H123      -82.1579   24.3587  -74.2382 H         1 UNK         0.1144 
    124 H124      -80.5535   23.9916  -72.3208 H         1 UNK         0.0793 
    125 H125      -80.1161   25.6940  -72.3579 H         1 UNK         0.0793 
    126 H126      -81.7543   25.2119  -71.9256 H         1 UNK         0.0793 
    127 H127      -81.0130   26.9466  -74.8985 H         1 UNK         0.2896 
@<TRIPOS>BOND
     1    1    2 1    
     2    1   67 1    
     3    1   68 1    
     4    1   69 1    
     5    2    3 2    
     6    2    4 am   BACKBONE|DICT|INTERRES
     7    4    5 1    
     8    4   70 1    
     9    5    6 1    
    10    5   65 1    
    11    5   71 1    
    12    6    7 1    
    13    6   72 1    
    14    6   73 1    
    15    7    8 1    
    16    8    9 1    
    17    8   74 1    
    18    8   75 1    
    19    9   10 ar   
    20    9   14 ar   
    21   10   11 ar   
    22   10   76 1    
    23   11   12 ar   
    24   11   48 1    
    25   12   13 ar   
    26   12   77 1    
    27   13   14 ar   
    28   13   15 1    
    29   14   78 1    
    30   15   16 1    
    31   15   79 1    
    32   15   80 1    
    33   16   17 1    
    34   17   18 1    
    35   17   81 1    
    36   17   82 1    
    37   18   19 1    
    38   18   22 1    
    39   18   83 1    
    40   19   20 am   BACKBONE|DICT|INTERRES
    41   19   21 2    
    42   20   84 1    
    43   20   85 1    
    44   22   23 am   BACKBONE|DICT|INTERRES
    45   22   86 1    
    46   23   24 2    
    47   23   25 1    
    48   25   26 1    
    49   25   27 1    
    50   25   87 1    
    51   26   88 1    
    52   26   89 1    
    53   26   90 1    
    54   27   28 am   BACKBONE|DICT|INTERRES
    55   27   91 1    
    56   28   29 2    
    57   28   30 1    
    58   30   31 1    
    59   30   32 1    
    60   30   92 1    
    61   31   93 1    
    62   31   94 1    
    63   31   95 1    
    64   32   33 am   BACKBONE|DICT|INTERRES
    65   32   96 1    
    66   33   34 2    
    67   33   35 1    
    68   35   36 1    
    69   35   37 1    
    70   35   97 1    
    71   36   98 1    
    72   36   99 1    
    73   36  100 1    
    74   37   38 am   BACKBONE|DICT|INTERRES
    75   37  101 1    
    76   38   39 2    
    77   38   40 1    
    78   40   41 1    
    79   40   42 1    
    80   40  102 1    
    81   41  103 1    
    82   41  104 1    
    83   41  105 1    
    84   42   43 am   BACKBONE|DICT|INTERRES
    85   42  106 1    
    86   43   44 2    
    87   43   45 1    
    88   45   46 1    
    89   45   49 1    
    90   45  107 1    
    91   46   47 1    
    92   46  108 1    
    93   46  109 1    
    94   47   48 1    
    95   48  110 1    
    96   48  111 1    
    97   49   50 am   BACKBONE|DICT|INTERRES
    98   49  112 1    
    99   50   51 2    
   100   50   52 1    
   101   52   53 1    
   102   52   54 1    
   103   52  113 1    
   104   53  114 1    
   105   53  115 1    
   106   53  116 1    
   107   54   55 am   BACKBONE|DICT|INTERRES
   108   54  117 1    
   109   55   56 2    
   110   55   57 1    
   111   57   58 1    
   112   57   59 1    
   113   57  118 1    
   114   58  119 1    
   115   58  120 1    
   116   58  121 1    
   117   59   60 am   BACKBONE|DICT|INTERRES
   118   59  122 1    
   119   60   61 2    
   120   60   62 1    
   121   62   63 1    
   122   62   64 1    
   123   62  123 1    
   124   63  124 1    
   125   63  125 1    
   126   63  126 1    
   127   64   65 am   BACKBONE|DICT|INTERRES
   128   64  127 1    
   129   65   66 2    
@<TRIPOS>SUBSTRUCTURE
     1 UNK         1 GROUP             0       ****    0 ROOT    
