@<TRIPOS>MOLECULE
3R135
127   129    1
SMALL
USER_CHARGES


@<TRIPOS>ATOM
      1 CA        -84.2233   27.6203  -70.0870 C.3       0 UNK        -0.1998 
      2 C         -83.4178   27.4750  -71.3695 C.2       0 UNK         0.4909 
      3 O         -82.2116   27.2412  -71.2961 O.2       0 UNK        -0.5240 
      4 N         -84.0928   27.5993  -72.5239 N.am      1 UNK        -0.4739 
      5 CA        -83.6401   27.5473  -73.9301 C.3       1 UNK         0.0864 
      6 C6        -83.0091   28.8642  -74.4732 C.3       11 UNK        -0.0881 
      7 S7        -81.6203   29.5642  -73.5206 S.3       11 UNK        -0.2682 
      8 C8        -80.1906   28.9017  -74.4223 C.3       11 UNK         0.0289 
      9 C9        -78.9211   29.0612  -73.6028 C.ar      11 UNK        -0.0687 
     10 C10       -78.6596   28.1669  -72.5623 C.ar      11 UNK        -0.0823 
     11 C11       -77.5114   28.3064  -71.7790 C.ar      11 UNK        -0.0830 
     12 C12       -76.6313   29.3603  -72.0331 C.ar      11 UNK        -0.1021 
     13 C13       -76.8697   30.2542  -73.0821 C.ar      11 UNK        -0.0753 
     14 C14       -78.0181   30.0967  -73.8672 C.ar      11 UNK        -0.0933 
     15 C15       -75.9075   31.4074  -73.3457 C.3       11 UNK         0.0166 
     16 S16       -74.3944   30.8684  -74.2096 S.3       11 UNK        -0.2615 
     17 C17       -73.4170   30.1440  -72.8451 C.3       11 UNK        -0.0865 
     18 CA        -71.9111   30.5147  -72.8868 C.3       10 UNK         0.0862 
     19 C         -71.2036   29.9961  -71.5984 C.2       10 UNK         0.5551 
     20 N         -70.3493   28.9821  -71.6667 N.am      10 UNK        -0.7319 
     21 O         -71.4401   30.5272  -70.5162 O.2       10 UNK        -0.5018 
     22 N         -71.2944   30.0951  -74.1546 N.am      10 UNK        -0.4509 
     23 C         -70.0605   30.3875  -74.5813 C.2       10 UNK         0.4899 
     24 O         -69.2797   31.1114  -73.9615 O.2       10 UNK        -0.4839 
     25 CA        -69.6248   29.7439  -75.9180 C.3       9 UNK         0.0222 
     26 CB        -68.1300   29.9628  -76.2203 C.3       9 UNK        -0.1966 
     27 N         -69.9173   28.3044  -75.9804 N.am      9 UNK        -0.4218 
     28 C         -71.1302   27.7716  -76.1775 C.2       9 UNK         0.5020 
     29 O         -72.1463   28.4524  -76.3311 O.2       9 UNK        -0.5274 
     30 CA        -71.2298   26.2397  -76.1232 C.3       8 UNK         0.0270 
     31 CB        -71.1788   25.7467  -74.6664 C.3       8 UNK        -0.1976 
     32 N         -72.4851   25.7979  -76.7314 N.am      8 UNK        -0.4313 
     33 C         -72.6497   25.5804  -78.0436 C.2       8 UNK         0.5041 
     34 O         -71.7245   25.6061  -78.8577 O.2       8 UNK        -0.5577 
     35 CA        -74.0718   25.2744  -78.5508 C.3       7 UNK         0.0284 
     36 CB        -74.2418   23.7648  -78.7884 C.3       7 UNK        -0.1958 
     37 N         -75.1322   25.7419  -77.6564 N.am      7 UNK        -0.4454 
     38 C         -75.4486   27.0251  -77.4336 C.2       7 UNK         0.5089 
     39 O         -74.9397   27.9687  -78.0381 O.2       7 UNK        -0.5125 
     40 CA        -76.5275   27.3050  -76.3688 C.3       6 UNK         0.0408 
     41 CB        -77.8862   27.4995  -77.0579 C.3       6 UNK        -0.1791 
     42 N         -76.6520   26.2601  -75.3439 N.am      6 UNK        -0.4762 
     43 C         -75.6816   25.8833  -74.4952 C.2       6 UNK         0.5007 
     44 O         -74.5508   26.3689  -74.4942 O.2       6 UNK        -0.5032 
     45 CA        -75.9975   24.7003  -73.5571 C.3       5 UNK         0.0783 
     46 C46       -76.8474   25.0984  -72.3287 C.3       11 UNK        -0.0857 
     47 S47       -75.9464   26.1148  -71.1132 S.3       11 UNK        -0.2512 
     48 C48       -77.2224   27.3298  -70.6488 C.3       11 UNK         0.0225 
     49 N         -76.6540   23.6334  -74.3109 N.am      5 UNK        -0.4615 
     50 C         -76.0208   22.7466  -75.0880 C.2       4 UNK         0.5053 
     51 O         -74.7967   22.6781  -75.1913 O.2       4 UNK        -0.5105 
     52 CA        -76.9030   21.7792  -75.8978 C.3       4 UNK         0.0263 
     53 CB        -77.1080   20.4659  -75.1260 C.3       4 UNK        -0.1981 
     54 N         -78.2097   22.3459  -76.2476 N.am      4 UNK        -0.4224 
     55 C         -78.3868   23.3639  -77.1020 C.2       3 UNK         0.4895 
     56 O         -77.4701   23.9056  -77.7167 O.2       3 UNK        -0.5091 
     57 CA        -79.8204   23.8939  -77.2704 C.3       3 UNK         0.0250 
     58 CB        -80.5575   23.1113  -78.3685 C.3       3 UNK        -0.1996 
     59 N         -80.6143   23.8753  -76.0369 N.am      3 UNK        -0.4254 
     60 C         -80.3146   24.5487  -74.9173 C.2       2 UNK         0.5004 
     61 O         -79.2916   25.2212  -74.7735 O.2       2 UNK        -0.5226 
     62 CA        -81.3153   24.4326  -73.7553 C.3       2 UNK         0.0269 
     63 CB        -80.6040   24.0294  -72.4524 C.3       2 UNK        -0.1926 
     64 N         -82.0552   25.6755  -73.5279 N.am      2 UNK        -0.4687 
     65 C         -82.8861   26.2743  -74.3885 C.2       1 UNK         0.5165 
     66 O         -83.1134   25.8323  -75.5159 O.2       1 UNK        -0.5079 
     67 H67       -83.8274   28.4408  -69.4890 H         1 UNK         0.0900 
     68 H68       -85.2761   27.8220  -70.2837 H         1 UNK         0.0900 
     69 H69       -84.1571   26.7064  -69.4974 H         1 UNK         0.0900 
     70 H70       -85.0875   27.7594  -72.4426 H         1 UNK         0.2959 
     71 H71       -84.5870   27.4598  -74.4668 H         1 UNK         0.1079 
     72 H72       -83.7827   29.6333  -74.4888 H         1 UNK         0.0837 
     73 H73       -82.7102   28.7502  -75.5174 H         1 UNK         0.0837 
     74 H74       -80.3502   27.8444  -74.6360 H         1 UNK         0.0685 
     75 H75       -80.1011   29.4092  -75.3838 H         1 UNK         0.0685 
     76 H76       -79.3615   27.3683  -72.3618 H         1 UNK         0.1434 
     77 H77       -75.7577   29.4736  -71.4093 H         1 UNK         0.1329 
     78 H78       -78.2183   30.7890  -74.6733 H         1 UNK         0.1335 
     79 H79       -75.6491   31.9023  -72.4085 H         1 UNK         0.0680 
     80 H80       -76.3965   32.1667  -73.9578 H         1 UNK         0.0680 
     81 H81       -73.5480   29.0597  -72.8701 H         1 UNK         0.1032 
     82 H82       -73.8387   30.4823  -71.8979 H         1 UNK         0.1032 
     83 H83       -71.8364   31.6032  -72.8528 H         1 UNK         0.0461 
     84 H84       -70.1435   28.5490  -72.5515 H         1 UNK         0.3453 
     85 H85       -69.8975   28.6586  -70.8260 H         1 UNK         0.3453 
     86 H86       -71.8728   29.5244  -74.7656 H         1 UNK         0.2984 
     87 H87       -70.1931   30.2435  -76.7054 H         1 UNK         0.0554 
     88 H88       -67.8878   31.0261  -76.2515 H         1 UNK         0.0847 
     89 H89       -67.8542   29.5446  -77.1885 H         1 UNK         0.0847 
     90 H90       -67.4929   29.5058  -75.4620 H         1 UNK         0.0847 
     91 H91       -69.1370   27.6821  -75.8233 H         1 UNK         0.3141 
     92 H92       -70.3865   25.8103  -76.6684 H         1 UNK         0.0743 
     93 H93       -71.9435   26.2211  -74.0502 H         1 UNK         0.0784 
     94 H94       -71.3245   24.6679  -74.6071 H         1 UNK         0.0784 
     95 H95       -70.2132   25.9671  -74.2099 H         1 UNK         0.0784 
     96 H96       -73.3080   25.8590  -76.1409 H         1 UNK         0.3213 
     97 H97       -74.1917   25.7864  -79.5079 H         1 UNK         0.0855 
     98 H98       -74.1615   23.1992  -77.8595 H         1 UNK         0.0814 
     99 H99       -73.4765   23.3869  -79.4678 H         1 UNK         0.0814 
    100 H100      -75.2096   23.5394  -79.2365 H         1 UNK         0.0814 
    101 H101      -75.6948   25.0326  -77.2017 H         1 UNK         0.3105 
    102 H102      -76.2615   28.2310  -75.8543 H         1 UNK         0.0547 
    103 H103      -78.1339   26.6540  -77.6994 H         1 UNK         0.0837 
    104 H104      -77.8787   28.3916  -77.6851 H         1 UNK         0.0837 
    105 H105      -78.6904   27.6131  -76.3356 H         1 UNK         0.0837 
    106 H106      -77.5678   25.8260  -75.2493 H         1 UNK         0.3020 
    107 H107      -75.0421   24.3167  -73.1900 H         1 UNK         0.1245 
    108 H108      -77.1778   24.2011  -71.8029 H         1 UNK         0.0781 
    109 H109      -77.7574   25.6029  -72.6476 H         1 UNK         0.0781 
    110 H110      -76.8818   27.8815  -69.7714 H         1 UNK         0.0836 
    111 H111      -78.1307   26.8069  -70.3446 H         1 UNK         0.0836 
    112 H112      -77.6637   23.6625  -74.3318 H         1 UNK         0.3022 
    113 H113      -76.3738   21.5526  -76.8261 H         1 UNK         0.0747 
    114 H114      -77.6648   19.7398  -75.7186 H         1 UNK         0.0793 
    115 H115      -76.1499   20.0087  -74.8741 H         1 UNK         0.0793 
    116 H116      -77.6486   20.6247  -74.1920 H         1 UNK         0.0793 
    117 H117      -79.0204   21.9523  -75.7924 H         1 UNK         0.3047 
    118 H118      -79.7476   24.9347  -77.5901 H         1 UNK         0.0822 
    119 H119      -81.5378   23.5425  -78.5730 H         1 UNK         0.0807 
    120 H120      -80.7001   22.0650  -78.0953 H         1 UNK         0.0807 
    121 H121      -79.9966   23.1304  -79.3042 H         1 UNK         0.0807 
    122 H122      -81.4883   23.3703  -76.0761 H         1 UNK         0.2946 
    123 H123      -82.0411   23.6530  -73.9962 H         1 UNK         0.1144 
    124 H124      -79.9988   23.1327  -72.5925 H         1 UNK         0.0793 
    125 H125      -81.3231   23.8146  -71.6618 H         1 UNK         0.0793 
    126 H126      -79.9447   24.8191  -72.0921 H         1 UNK         0.0793 
    127 H127      -81.9275   26.1380  -72.6281 H         1 UNK         0.2896 
@<TRIPOS>BOND
     1    1    2 1    
     2    1   67 1    
     3    1   68 1    
     4    1   69 1    
     5    2    3 2    
     6    2    4 am   BACKBONE|DICT|INTERRES
     7    4    5 1    
     8    4   70 1    
     9    5    6 1    
    10    5   65 1    
    11    5   71 1    
    12    6    7 1    
    13    6   72 1    
    14    6   73 1    
    15    7    8 1    
    16    8    9 1    
    17    8   74 1    
    18    8   75 1    
    19    9   10 ar   
    20    9   14 ar   
    21   10   11 ar   
    22   10   76 1    
    23   11   12 ar   
    24   11   48 1    
    25   12   13 ar   
    26   12   77 1    
    27   13   14 ar   
    28   13   15 1    
    29   14   78 1    
    30   15   16 1    
    31   15   79 1    
    32   15   80 1    
    33   16   17 1    
    34   17   18 1    
    35   17   81 1    
    36   17   82 1    
    37   18   19 1    
    38   18   22 1    
    39   18   83 1    
    40   19   20 am   BACKBONE|DICT|INTERRES
    41   19   21 2    
    42   20   84 1    
    43   20   85 1    
    44   22   23 am   BACKBONE|DICT|INTERRES
    45   22   86 1    
    46   23   24 2    
    47   23   25 1    
    48   25   26 1    
    49   25   27 1    
    50   25   87 1    
    51   26   88 1    
    52   26   89 1    
    53   26   90 1    
    54   27   28 am   BACKBONE|DICT|INTERRES
    55   27   91 1    
    56   28   29 2    
    57   28   30 1    
    58   30   31 1    
    59   30   32 1    
    60   30   92 1    
    61   31   93 1    
    62   31   94 1    
    63   31   95 1    
    64   32   33 am   BACKBONE|DICT|INTERRES
    65   32   96 1    
    66   33   34 2    
    67   33   35 1    
    68   35   36 1    
    69   35   37 1    
    70   35   97 1    
    71   36   98 1    
    72   36   99 1    
    73   36  100 1    
    74   37   38 am   BACKBONE|DICT|INTERRES
    75   37  101 1    
    76   38   39 2    
    77   38   40 1    
    78   40   41 1    
    79   40   42 1    
    80   40  102 1    
    81   41  103 1    
    82   41  104 1    
    83   41  105 1    
    84   42   43 am   BACKBONE|DICT|INTERRES
    85   42  106 1    
    86   43   44 2    
    87   43   45 1    
    88   45   46 1    
    89   45   49 1    
    90   45  107 1    
    91   46   47 1    
    92   46  108 1    
    93   46  109 1    
    94   47   48 1    
    95   48  110 1    
    96   48  111 1    
    97   49   50 am   BACKBONE|DICT|INTERRES
    98   49  112 1    
    99   50   51 2    
   100   50   52 1    
   101   52   53 1    
   102   52   54 1    
   103   52  113 1    
   104   53  114 1    
   105   53  115 1    
   106   53  116 1    
   107   54   55 am   BACKBONE|DICT|INTERRES
   108   54  117 1    
   109   55   56 2    
   110   55   57 1    
   111   57   58 1    
   112   57   59 1    
   113   57  118 1    
   114   58  119 1    
   115   58  120 1    
   116   58  121 1    
   117   59   60 am   BACKBONE|DICT|INTERRES
   118   59  122 1    
   119   60   61 2    
   120   60   62 1    
   121   62   63 1    
   122   62   64 1    
   123   62  123 1    
   124   63  124 1    
   125   63  125 1    
   126   63  126 1    
   127   64   65 am   BACKBONE|DICT|INTERRES
   128   64  127 1    
   129   65   66 2    
@<TRIPOS>SUBSTRUCTURE
     1 UNK         1 GROUP             0       ****    0 ROOT    
