@<TRIPOS>MOLECULE
3R135
127   129    1
SMALL
USER_CHARGES


@<TRIPOS>ATOM
      1 CA        -81.8636   24.7869  -71.4581 C.3       0 UNK        -0.1998 
      2 C         -82.2174   25.7891  -72.5453 C.2       0 UNK         0.4909 
      3 O         -83.2345   25.6292  -73.2220 O.2       0 UNK        -0.5240 
      4 N         -81.3854   26.8226  -72.7243 N.am      1 UNK        -0.4739 
      5 CA        -81.5558   27.8976  -73.7122 C.3       1 UNK         0.0864 
      6 C6        -80.8711   29.2172  -73.2632 C.3       11 UNK        -0.0881 
      7 S7        -81.4446   29.7629  -71.6116 S.3       11 UNK        -0.2682 
      8 C8        -80.0363   30.7378  -70.9690 C.3       11 UNK         0.0289 
      9 C9        -78.6932   30.0178  -71.0466 C.ar      11 UNK        -0.0687 
     10 C10       -78.5656   28.6828  -70.6459 C.ar      11 UNK        -0.0823 
     11 C11       -77.3580   28.0021  -70.8246 C.ar      11 UNK        -0.0830 
     12 C12       -76.2552   28.6810  -71.3497 C.ar      11 UNK        -0.1021 
     13 C13       -76.3554   30.0277  -71.7072 C.ar      11 UNK        -0.0753 
     14 C14       -77.5777   30.6890  -71.5588 C.ar      11 UNK        -0.0933 
     15 C15       -75.1494   30.7512  -72.2851 C.3       11 UNK         0.0166 
     16 S16       -73.8482   30.9592  -71.0309 S.3       11 UNK        -0.2615 
     17 C17       -72.5614   31.8494  -71.9760 C.3       11 UNK        -0.0865 
     18 CA        -71.5143   30.9378  -72.6793 C.3       10 UNK         0.0862 
     19 C         -70.7318   30.0076  -71.7135 C.2       10 UNK         0.5551 
     20 N         -69.9429   30.5743  -70.8107 N.am      10 UNK        -0.7319 
     21 O         -70.8320   28.7824  -71.7717 O.2       10 UNK        -0.5018 
     22 N         -72.0927   30.1778  -73.7906 N.am      10 UNK        -0.4509 
     23 C         -72.3591   30.6594  -75.0085 C.2       10 UNK         0.4899 
     24 O         -72.1908   31.8402  -75.3176 O.2       10 UNK        -0.4839 
     25 CA        -72.9304   29.6816  -76.0573 C.3       9 UNK         0.0222 
     26 CB        -72.3805   29.9653  -77.4713 C.3       9 UNK        -0.1966 
     27 N         -72.7912   28.2574  -75.7218 N.am      9 UNK        -0.4218 
     28 C         -71.6565   27.5555  -75.5709 C.2       9 UNK         0.5020 
     29 O         -70.5256   28.0377  -75.6445 O.2       9 UNK        -0.5274 
     30 CA        -71.8164   26.0510  -75.2966 C.3       8 UNK         0.0270 
     31 CB        -72.2703   25.8044  -73.8476 C.3       8 UNK        -0.1976 
     32 N         -72.7494   25.4116  -76.2283 N.am      8 UNK        -0.4313 
     33 C         -72.5304   25.2643  -77.5442 C.2       8 UNK         0.5041 
     34 O         -71.4760   25.5688  -78.1036 O.2       8 UNK        -0.5577 
     35 CA        -73.6861   24.6964  -78.3865 C.3       7 UNK         0.0284 
     36 CB        -73.7381   23.1637  -78.2865 C.3       7 UNK        -0.1958 
     37 N         -74.9821   25.2646  -78.0105 N.am      7 UNK        -0.4454 
     38 C         -75.3329   26.5458  -78.1924 C.2       7 UNK         0.5089 
     39 O         -74.6394   27.3704  -78.7866 O.2       7 UNK        -0.5125 
     40 CA        -76.6740   26.9925  -77.5877 C.3       6 UNK         0.0408 
     41 CB        -77.8256   26.7785  -78.5813 C.3       6 UNK        -0.1791 
     42 N         -76.9734   26.3134  -76.3254 N.am      6 UNK        -0.4762 
     43 C         -76.3201   26.5349  -75.1758 C.2       6 UNK         0.5007 
     44 O         -75.4066   27.3518  -75.0533 O.2       6 UNK        -0.5032 
     45 CA        -76.7236   25.6648  -73.9710 C.3       5 UNK         0.0783 
     46 C46       -77.9841   26.2364  -73.2921 C.3       11 UNK        -0.0857 
     47 S47       -78.2943   25.5044  -71.6473 S.3       11 UNK        -0.2512 
     48 C48       -77.2611   26.5133  -70.5267 C.3       11 UNK         0.0225 
     49 N         -76.9029   24.2629  -74.3547 N.am      5 UNK        -0.4615 
     50 C         -75.9145   23.4640  -74.7750 C.2       4 UNK         0.5053 
     51 O         -74.7380   23.8164  -74.8487 O.2       4 UNK        -0.5105 
     52 CA        -76.3075   22.0504  -75.2362 C.3       4 UNK         0.0263 
     53 CB        -76.3035   21.0791  -74.0456 C.3       4 UNK        -0.1981 
     54 N         -77.6058   21.9863  -75.9157 N.am      4 UNK        -0.4224 
     55 C         -77.9390   22.6719  -77.0190 C.2       3 UNK         0.4895 
     56 O         -77.1808   23.4586  -77.5868 O.2       3 UNK        -0.5091 
     57 CA        -79.3528   22.4641  -77.5926 C.3       3 UNK         0.0250 
     58 CB        -80.1581   21.3340  -76.9091 C.3       3 UNK        -0.1996 
     59 N         -80.1309   23.7096  -77.6096 N.am      3 UNK        -0.4254 
     60 C         -80.4583   24.4711  -76.5545 C.2       2 UNK         0.5004 
     61 O         -80.0679   24.2514  -75.4045 O.2       2 UNK        -0.5226 
     62 CA        -81.3994   25.6574  -76.8450 C.3       2 UNK         0.0269 
     63 CB        -82.7129   25.1815  -77.4942 C.3       2 UNK        -0.1926 
     64 N         -81.7401   26.3709  -75.6149 N.am      2 UNK        -0.4687 
     65 C         -81.0897   27.4238  -75.1089 C.2       1 UNK         0.5165 
     66 O         -80.1516   27.9823  -75.6801 O.2       1 UNK        -0.5079 
     67 H67       -81.2013   25.2226  -70.7104 H         1 UNK         0.0900 
     68 H68       -82.7643   24.4452  -70.9490 H         1 UNK         0.0900 
     69 H69       -81.3668   23.9212  -71.8957 H         1 UNK         0.0900 
     70 H70       -80.5470   26.8804  -72.1638 H         1 UNK         0.2959 
     71 H71       -82.6236   28.1110  -73.8023 H         1 UNK         0.1079 
     72 H72       -81.0811   30.0169  -73.9758 H         1 UNK         0.0837 
     73 H73       -79.7879   29.0926  -73.2605 H         1 UNK         0.0837 
     74 H74       -79.9980   31.6784  -71.5208 H         1 UNK         0.0685 
     75 H75       -80.2352   30.9987  -69.9289 H         1 UNK         0.0685 
     76 H76       -79.4231   28.1550  -70.2517 H         1 UNK         0.1434 
     77 H77       -75.3176   28.1619  -71.4964 H         1 UNK         0.1329 
     78 H78       -77.6651   31.7240  -71.8603 H         1 UNK         0.1335 
     79 H79       -74.7645   30.1752  -73.1270 H         1 UNK         0.0680 
     80 H80       -75.4332   31.7289  -72.6776 H         1 UNK         0.0680 
     81 H81       -72.0533   32.5224  -71.2837 H         1 UNK         0.1032 
     82 H82       -73.0385   32.5054  -72.7055 H         1 UNK         0.1032 
     83 H83       -70.7542   31.5895  -73.1153 H         1 UNK         0.0461 
     84 H84       -69.8474   31.5761  -70.7530 H         1 UNK         0.3453 
     85 H85       -69.4292   29.9858  -70.1736 H         1 UNK         0.3453 
     86 H86       -72.2039   29.1896  -73.6090 H         1 UNK         0.2984 
     87 H87       -74.0049   29.8683  -76.0814 H         1 UNK         0.0554 
     88 H88       -72.8018   29.2800  -78.2064 H         1 UNK         0.0847 
     89 H89       -71.2950   29.8701  -77.5096 H         1 UNK         0.0847 
     90 H90       -72.6293   30.9763  -77.7955 H         1 UNK         0.0847 
     91 H91       -73.6755   27.7716  -75.5783 H         1 UNK         0.3141 
     92 H92       -70.8388   25.5825  -75.4286 H         1 UNK         0.0743 
     93 H93       -73.2635   26.2113  -73.6559 H         1 UNK         0.0784 
     94 H94       -72.2985   24.7388  -73.6190 H         1 UNK         0.0784 
     95 H95       -71.5839   26.2700  -73.1387 H         1 UNK         0.0784 
     96 H96       -73.6120   25.0458  -75.8332 H         1 UNK         0.3213 
     97 H97       -73.4992   24.9610  -79.4295 H         1 UNK         0.0855 
     98 H98       -73.8803   22.8296  -77.2593 H         1 UNK         0.0814 
     99 H99       -72.8084   22.7205  -78.6453 H         1 UNK         0.0814 
    100 H100      -74.5485   22.7524  -78.8887 H         1 UNK         0.0814 
    101 H101      -75.6666   24.6343  -77.6004 H         1 UNK         0.3105 
    102 H102      -76.6021   28.0633  -77.3846 H         1 UNK         0.0547 
    103 H103      -77.6164   27.2729  -79.5309 H         1 UNK         0.0837 
    104 H104      -77.9912   25.7223  -78.7943 H         1 UNK         0.0837 
    105 H105      -78.7549   27.1993  -78.1988 H         1 UNK         0.0837 
    106 H106      -77.6686   25.5806  -76.3522 H         1 UNK         0.3020 
    107 H107      -75.8962   25.7148  -73.2595 H         1 UNK         0.1245 
    108 H108      -78.8569   26.0314  -73.9105 H         1 UNK         0.0781 
    109 H109      -77.9422   27.3233  -73.2219 H         1 UNK         0.0781 
    110 H110      -76.2278   26.1711  -70.6019 H         1 UNK         0.0836 
    111 H111      -77.5684   26.3288  -69.4965 H         1 UNK         0.0836 
    112 H112      -77.8516   23.9115  -74.3485 H         1 UNK         0.3022 
    113 H113      -75.5517   21.7165  -75.9492 H         1 UNK         0.0747 
    114 H114      -76.4832   20.0533  -74.3683 H         1 UNK         0.0793 
    115 H115      -75.3389   21.0916  -73.5359 H         1 UNK         0.0793 
    116 H116      -77.0647   21.3391  -73.3087 H         1 UNK         0.0793 
    117 H117      -78.3016   21.3790  -75.5078 H         1 UNK         0.3047 
    118 H118      -79.2088   22.1772  -78.6354 H         1 UNK         0.0822 
    119 H119      -80.3667   21.5475  -75.8600 H         1 UNK         0.0807 
    120 H120      -79.6283   20.3817  -76.9599 H         1 UNK         0.0807 
    121 H121      -81.1169   21.1865  -77.4065 H         1 UNK         0.0807 
    122 H122      -80.4666   23.9898  -78.5204 H         1 UNK         0.2946 
    123 H123      -80.8911   26.3353  -77.5333 H         1 UNK         0.1144 
    124 H124      -83.3991   26.0140  -77.6520 H         1 UNK         0.0793 
    125 H125      -83.2236   24.4430  -76.8744 H         1 UNK         0.0793 
    126 H126      -82.5398   24.7266  -78.4700 H         1 UNK         0.0793 
    127 H127      -82.4316   25.9311  -75.0148 H         1 UNK         0.2896 
@<TRIPOS>BOND
     1    1    2 1    
     2    1   67 1    
     3    1   68 1    
     4    1   69 1    
     5    2    3 2    
     6    2    4 am   BACKBONE|DICT|INTERRES
     7    4    5 1    
     8    4   70 1    
     9    5    6 1    
    10    5   65 1    
    11    5   71 1    
    12    6    7 1    
    13    6   72 1    
    14    6   73 1    
    15    7    8 1    
    16    8    9 1    
    17    8   74 1    
    18    8   75 1    
    19    9   10 ar   
    20    9   14 ar   
    21   10   11 ar   
    22   10   76 1    
    23   11   12 ar   
    24   11   48 1    
    25   12   13 ar   
    26   12   77 1    
    27   13   14 ar   
    28   13   15 1    
    29   14   78 1    
    30   15   16 1    
    31   15   79 1    
    32   15   80 1    
    33   16   17 1    
    34   17   18 1    
    35   17   81 1    
    36   17   82 1    
    37   18   19 1    
    38   18   22 1    
    39   18   83 1    
    40   19   20 am   BACKBONE|DICT|INTERRES
    41   19   21 2    
    42   20   84 1    
    43   20   85 1    
    44   22   23 am   BACKBONE|DICT|INTERRES
    45   22   86 1    
    46   23   24 2    
    47   23   25 1    
    48   25   26 1    
    49   25   27 1    
    50   25   87 1    
    51   26   88 1    
    52   26   89 1    
    53   26   90 1    
    54   27   28 am   BACKBONE|DICT|INTERRES
    55   27   91 1    
    56   28   29 2    
    57   28   30 1    
    58   30   31 1    
    59   30   32 1    
    60   30   92 1    
    61   31   93 1    
    62   31   94 1    
    63   31   95 1    
    64   32   33 am   BACKBONE|DICT|INTERRES
    65   32   96 1    
    66   33   34 2    
    67   33   35 1    
    68   35   36 1    
    69   35   37 1    
    70   35   97 1    
    71   36   98 1    
    72   36   99 1    
    73   36  100 1    
    74   37   38 am   BACKBONE|DICT|INTERRES
    75   37  101 1    
    76   38   39 2    
    77   38   40 1    
    78   40   41 1    
    79   40   42 1    
    80   40  102 1    
    81   41  103 1    
    82   41  104 1    
    83   41  105 1    
    84   42   43 am   BACKBONE|DICT|INTERRES
    85   42  106 1    
    86   43   44 2    
    87   43   45 1    
    88   45   46 1    
    89   45   49 1    
    90   45  107 1    
    91   46   47 1    
    92   46  108 1    
    93   46  109 1    
    94   47   48 1    
    95   48  110 1    
    96   48  111 1    
    97   49   50 am   BACKBONE|DICT|INTERRES
    98   49  112 1    
    99   50   51 2    
   100   50   52 1    
   101   52   53 1    
   102   52   54 1    
   103   52  113 1    
   104   53  114 1    
   105   53  115 1    
   106   53  116 1    
   107   54   55 am   BACKBONE|DICT|INTERRES
   108   54  117 1    
   109   55   56 2    
   110   55   57 1    
   111   57   58 1    
   112   57   59 1    
   113   57  118 1    
   114   58  119 1    
   115   58  120 1    
   116   58  121 1    
   117   59   60 am   BACKBONE|DICT|INTERRES
   118   59  122 1    
   119   60   61 2    
   120   60   62 1    
   121   62   63 1    
   122   62   64 1    
   123   62  123 1    
   124   63  124 1    
   125   63  125 1    
   126   63  126 1    
   127   64   65 am   BACKBONE|DICT|INTERRES
   128   64  127 1    
   129   65   66 2    
@<TRIPOS>SUBSTRUCTURE
     1 UNK         1 GROUP             0       ****    0 ROOT    
