@<TRIPOS>MOLECULE
3R135
127   129    1
SMALL
USER_CHARGES


@<TRIPOS>ATOM
      1 CA        -80.9203   26.6466  -68.0639 C.3       0 UNK        -0.1998 
      2 C         -81.6168   26.1372  -69.3167 C.2       0 UNK         0.4909 
      3 O         -82.6108   25.4175  -69.2156 O.2       0 UNK        -0.5240 
      4 N         -81.1025   26.5070  -70.4970 N.am      1 UNK        -0.4739 
      5 CA        -81.6329   26.0999  -71.8056 C.3       1 UNK         0.0864 
      6 C6        -81.1206   27.0203  -72.9406 C.3       11 UNK        -0.0881 
      7 S7        -81.9034   28.6683  -72.8776 S.3       11 UNK        -0.2682 
      8 C8        -80.6938   29.6692  -71.9493 C.3       11 UNK         0.0289 
      9 C9        -79.3735   29.8430  -72.6879 C.ar      11 UNK        -0.0687 
     10 C10       -79.3456   30.4530  -73.9452 C.ar      11 UNK        -0.0823 
     11 C11       -78.1375   30.6300  -74.6253 C.ar      11 UNK        -0.0830 
     12 C12       -76.9462   30.1955  -74.0355 C.ar      11 UNK        -0.1021 
     13 C13       -76.9578   29.6103  -72.7646 C.ar      11 UNK        -0.0753 
     14 C14       -78.1744   29.4290  -72.0995 C.ar      11 UNK        -0.0933 
     15 C15       -75.6551   29.1875  -72.1038 C.3       11 UNK         0.0166 
     16 S16       -74.7766   30.6168  -71.4090 S.3       11 UNK        -0.2615 
     17 C17       -73.3204   29.8170  -70.6543 C.3       11 UNK        -0.0865 
     18 CA        -72.0492   29.9383  -71.5383 C.3       10 UNK         0.0862 
     19 C         -70.7539   29.7085  -70.7030 C.2       10 UNK         0.5551 
     20 N         -69.9086   28.7377  -71.0296 N.am      10 UNK        -0.7319 
     21 O         -70.5053   30.4353  -69.7442 O.2       10 UNK        -0.5018 
     22 N         -72.1379   29.0916  -72.7430 N.am      10 UNK        -0.4509 
     23 C         -71.5479   29.3686  -73.9140 C.2       10 UNK         0.4899 
     24 O         -70.9439   30.4179  -74.1399 O.2       10 UNK        -0.4839 
     25 CA        -71.6012   28.2945  -75.0188 C.3       9 UNK         0.0222 
     26 CB        -70.1930   27.7461  -75.3063 C.3       9 UNK        -0.1966 
     27 N         -72.4881   27.1670  -74.7155 N.am      9 UNK        -0.4218 
     28 C         -73.8113   27.1673  -74.9106 C.2       9 UNK         0.5020 
     29 O         -74.4369   28.1278  -75.3598 O.2       9 UNK        -0.5274 
     30 CA        -74.5363   25.8467  -74.6062 C.3       8 UNK         0.0270 
     31 CB        -76.0211   26.0514  -74.2489 C.3       8 UNK        -0.1976 
     32 N         -74.4379   25.0042  -75.7925 N.am      8 UNK        -0.4313 
     33 C         -73.3886   24.2283  -76.0969 C.2       8 UNK         0.5041 
     34 O         -72.4650   23.9880  -75.3181 O.2       8 UNK        -0.5577 
     35 CA        -73.3309   23.6934  -77.5374 C.3       7 UNK         0.0284 
     36 CB        -74.3194   22.5351  -77.7416 C.3       7 UNK        -0.1958 
     37 N         -73.6202   24.7581  -78.4996 N.am      7 UNK        -0.4454 
     38 C         -72.7870   25.7701  -78.7882 C.2       7 UNK         0.5089 
     39 O         -71.6170   25.8298  -78.4116 O.2       7 UNK        -0.5125 
     40 CA        -73.3872   26.9395  -79.5768 C.3       6 UNK         0.0408 
     41 CB        -73.5429   26.6035  -81.0701 C.3       6 UNK        -0.1791 
     42 N         -74.6748   27.2899  -78.9856 N.am      6 UNK        -0.4762 
     43 C         -75.2739   28.4800  -78.9922 C.2       6 UNK         0.5007 
     44 O         -74.8353   29.4490  -79.6151 O.2       6 UNK        -0.5032 
     45 CA        -76.5813   28.5995  -78.1645 C.3       5 UNK         0.0783 
     46 C46       -77.2351   29.9965  -78.3332 C.3       11 UNK        -0.0857 
     47 S47       -78.7245   30.2284  -77.3025 S.3       11 UNK        -0.2512 
     48 C48       -78.1294   31.3277  -75.9765 C.3       11 UNK         0.0225 
     49 N         -77.5528   27.5207  -78.4179 N.am      5 UNK        -0.4615 
     50 C         -77.4501   26.2290  -78.0805 C.2       4 UNK         0.5053 
     51 O         -76.4286   25.7110  -77.6192 O.2       4 UNK        -0.5105 
     52 CA        -78.6847   25.3542  -78.3541 C.3       4 UNK         0.0263 
     53 CB        -78.6790   24.8739  -79.8145 C.3       4 UNK        -0.1981 
     54 N         -78.7327   24.1857  -77.4707 N.am      4 UNK        -0.4224 
     55 C         -78.9175   24.2352  -76.1448 C.2       3 UNK         0.4895 
     56 O         -79.1690   25.2696  -75.5194 O.2       3 UNK        -0.5091 
     57 CA        -78.7951   22.9012  -75.3946 C.3       3 UNK         0.0250 
     58 CB        -77.3869   22.2878  -75.5370 C.3       3 UNK        -0.1996 
     59 N         -79.1043   23.1282  -73.9866 N.am      3 UNK        -0.4254 
     60 C         -79.4967   22.1997  -73.1084 C.2       2 UNK         0.5004 
     61 O         -79.6000   21.0022  -73.3785 O.2       2 UNK        -0.5226 
     62 CA        -79.8335   22.6765  -71.6832 C.3       2 UNK         0.0269 
     63 CB        -78.6450   22.4250  -70.7406 C.3       2 UNK        -0.1926 
     64 N         -80.2281   24.0869  -71.5853 N.am      2 UNK        -0.4687 
     65 C         -81.3419   24.6162  -72.1156 C.2       1 UNK         0.5165 
     66 O         -82.1386   23.9765  -72.8035 O.2       1 UNK        -0.5079 
     67 H67       -81.6154   27.2280  -67.4589 H         1 UNK         0.0900 
     68 H68       -80.0655   27.2801  -68.3001 H         1 UNK         0.0900 
     69 H69       -80.5659   25.8081  -67.4649 H         1 UNK         0.0900 
     70 H70       -80.2880   27.1022  -70.5182 H         1 UNK         0.2959 
     71 H71       -82.7216   26.1874  -71.7659 H         1 UNK         0.1079 
     72 H72       -80.0329   27.1094  -72.9222 H         1 UNK         0.0837 
     73 H73       -81.3644   26.5984  -73.9182 H         1 UNK         0.0837 
     74 H74       -80.5394   29.2288  -70.9641 H         1 UNK         0.0685 
     75 H75       -81.1249   30.6556  -71.7734 H         1 UNK         0.0685 
     76 H76       -80.2692   30.7886  -74.3971 H         1 UNK         0.1434 
     77 H77       -76.0047   30.3308  -74.5511 H         1 UNK         0.1329 
     78 H78       -78.1835   28.9784  -71.1167 H         1 UNK         0.1335 
     79 H79       -75.8437   28.4549  -71.3175 H         1 UNK         0.0680 
     80 H80       -75.0125   28.7039  -72.8354 H         1 UNK         0.0680 
     81 H81       -73.5347   28.7733  -70.4183 H         1 UNK         0.1032 
     82 H82       -73.1690   30.3102  -69.6919 H         1 UNK         0.1032 
     83 H83       -71.9872   30.9789  -71.8632 H         1 UNK         0.0461 
     84 H84       -69.0727   28.6068  -70.4817 H         1 UNK         0.3453 
     85 H85       -70.0944   28.1399  -71.8176 H         1 UNK         0.3453 
     86 H86       -72.5973   28.2010  -72.6350 H         1 UNK         0.2984 
     87 H87       -71.9587   28.7852  -75.9268 H         1 UNK         0.0554 
     88 H88       -70.2067   27.0383  -76.1358 H         1 UNK         0.0847 
     89 H89       -69.7689   27.2392  -74.4388 H         1 UNK         0.0847 
     90 H90       -69.5074   28.5487  -75.5821 H         1 UNK         0.0847 
     91 H91       -72.0495   26.3075  -74.4102 H         1 UNK         0.3141 
     92 H92       -74.0500   25.3575  -73.7595 H         1 UNK         0.0743 
     93 H93       -76.5670   26.5765  -75.0339 H         1 UNK         0.0784 
     94 H94       -76.5226   25.0998  -74.0773 H         1 UNK         0.0784 
     95 H95       -76.1279   26.6346  -73.3355 H         1 UNK         0.0784 
     96 H96       -75.1492   25.1714  -76.5031 H         1 UNK         0.3213 
     97 H97       -72.3202   23.3201  -77.7177 H         1 UNK         0.0855 
     98 H98       -75.3530   22.8754  -77.6840 H         1 UNK         0.0814 
     99 H99       -74.1823   21.7619  -76.9842 H         1 UNK         0.0814 
    100 H100      -74.1784   22.0642  -78.7146 H         1 UNK         0.0814 
    101 H101      -74.5583   24.7810  -78.8729 H         1 UNK         0.3105 
    102 H102      -72.7097   27.7900  -79.4751 H         1 UNK         0.0547 
    103 H103      -72.5862   26.3117  -81.5051 H         1 UNK         0.0837 
    104 H104      -74.2412   25.7818  -81.2317 H         1 UNK         0.0837 
    105 H105      -73.9047   27.4640  -81.6329 H         1 UNK         0.0837 
    106 H106      -75.1288   26.5736  -78.4225 H         1 UNK         0.3020 
    107 H107      -76.2798   28.5123  -77.1187 H         1 UNK         0.1245 
    108 H108      -77.5298   30.1477  -79.3735 H         1 UNK         0.0781 
    109 H109      -76.5165   30.7878  -78.1145 H         1 UNK         0.0781 
    110 H110      -78.7822   32.2008  -75.9323 H         1 UNK         0.0836 
    111 H111      -77.1347   31.7157  -76.1974 H         1 UNK         0.0836 
    112 H112      -78.4249   27.8333  -78.8190 H         1 UNK         0.3022 
    113 H113      -79.5820   25.9512  -78.1773 H         1 UNK         0.0747 
    114 H114      -79.5631   24.2769  -80.0396 H         1 UNK         0.0793 
    115 H115      -78.6768   25.7172  -80.5065 H         1 UNK         0.0793 
    116 H116      -77.7991   24.2686  -80.0372 H         1 UNK         0.0793 
    117 H117      -78.5146   23.2966  -77.8952 H         1 UNK         0.3047 
    118 H118      -79.5368   22.2149  -75.8088 H         1 UNK         0.0822 
    119 H119      -77.1959   21.9850  -76.5660 H         1 UNK         0.0807 
    120 H120      -77.2728   21.3944  -74.9232 H         1 UNK         0.0807 
    121 H121      -76.6060   22.9912  -75.2473 H         1 UNK         0.0807 
    122 H122      -79.1049   24.1037  -73.7151 H         1 UNK         0.2946 
    123 H123      -80.6770   22.0733  -71.3393 H         1 UNK         0.1144 
    124 H124      -78.3429   21.3769  -70.7638 H         1 UNK         0.0793 
    125 H125      -78.8991   22.6630  -69.7075 H         1 UNK         0.0793 
    126 H126      -77.7751   23.0206  -71.0204 H         1 UNK         0.0793 
    127 H127      -79.6411   24.6849  -71.0223 H         1 UNK         0.2896 
@<TRIPOS>BOND
     1    1    2 1    
     2    1   67 1    
     3    1   68 1    
     4    1   69 1    
     5    2    3 2    
     6    2    4 am   BACKBONE|DICT|INTERRES
     7    4    5 1    
     8    4   70 1    
     9    5    6 1    
    10    5   65 1    
    11    5   71 1    
    12    6    7 1    
    13    6   72 1    
    14    6   73 1    
    15    7    8 1    
    16    8    9 1    
    17    8   74 1    
    18    8   75 1    
    19    9   10 ar   
    20    9   14 ar   
    21   10   11 ar   
    22   10   76 1    
    23   11   12 ar   
    24   11   48 1    
    25   12   13 ar   
    26   12   77 1    
    27   13   14 ar   
    28   13   15 1    
    29   14   78 1    
    30   15   16 1    
    31   15   79 1    
    32   15   80 1    
    33   16   17 1    
    34   17   18 1    
    35   17   81 1    
    36   17   82 1    
    37   18   19 1    
    38   18   22 1    
    39   18   83 1    
    40   19   20 am   BACKBONE|DICT|INTERRES
    41   19   21 2    
    42   20   84 1    
    43   20   85 1    
    44   22   23 am   BACKBONE|DICT|INTERRES
    45   22   86 1    
    46   23   24 2    
    47   23   25 1    
    48   25   26 1    
    49   25   27 1    
    50   25   87 1    
    51   26   88 1    
    52   26   89 1    
    53   26   90 1    
    54   27   28 am   BACKBONE|DICT|INTERRES
    55   27   91 1    
    56   28   29 2    
    57   28   30 1    
    58   30   31 1    
    59   30   32 1    
    60   30   92 1    
    61   31   93 1    
    62   31   94 1    
    63   31   95 1    
    64   32   33 am   BACKBONE|DICT|INTERRES
    65   32   96 1    
    66   33   34 2    
    67   33   35 1    
    68   35   36 1    
    69   35   37 1    
    70   35   97 1    
    71   36   98 1    
    72   36   99 1    
    73   36  100 1    
    74   37   38 am   BACKBONE|DICT|INTERRES
    75   37  101 1    
    76   38   39 2    
    77   38   40 1    
    78   40   41 1    
    79   40   42 1    
    80   40  102 1    
    81   41  103 1    
    82   41  104 1    
    83   41  105 1    
    84   42   43 am   BACKBONE|DICT|INTERRES
    85   42  106 1    
    86   43   44 2    
    87   43   45 1    
    88   45   46 1    
    89   45   49 1    
    90   45  107 1    
    91   46   47 1    
    92   46  108 1    
    93   46  109 1    
    94   47   48 1    
    95   48  110 1    
    96   48  111 1    
    97   49   50 am   BACKBONE|DICT|INTERRES
    98   49  112 1    
    99   50   51 2    
   100   50   52 1    
   101   52   53 1    
   102   52   54 1    
   103   52  113 1    
   104   53  114 1    
   105   53  115 1    
   106   53  116 1    
   107   54   55 am   BACKBONE|DICT|INTERRES
   108   54  117 1    
   109   55   56 2    
   110   55   57 1    
   111   57   58 1    
   112   57   59 1    
   113   57  118 1    
   114   58  119 1    
   115   58  120 1    
   116   58  121 1    
   117   59   60 am   BACKBONE|DICT|INTERRES
   118   59  122 1    
   119   60   61 2    
   120   60   62 1    
   121   62   63 1    
   122   62   64 1    
   123   62  123 1    
   124   63  124 1    
   125   63  125 1    
   126   63  126 1    
   127   64   65 am   BACKBONE|DICT|INTERRES
   128   64  127 1    
   129   65   66 2    
@<TRIPOS>SUBSTRUCTURE
     1 UNK         1 GROUP             0       ****    0 ROOT    
