@<TRIPOS>MOLECULE
3R135
127   129    1
SMALL
USER_CHARGES


@<TRIPOS>ATOM
      1 CA        -78.9548   26.7327  -68.0229 C.3       0 UNK        -0.1998 
      2 C         -79.1763   26.4495  -69.5000 C.2       0 UNK         0.4909 
      3 O         -78.2358   26.5380  -70.2842 O.2       0 UNK        -0.5240 
      4 N         -80.4066   26.0848  -69.8847 N.am      1 UNK        -0.4739 
      5 CA        -80.8776   25.8212  -71.2584 C.3       1 UNK         0.0864 
      6 C6        -80.6703   27.0106  -72.2360 C.3       11 UNK        -0.0881 
      7 S7        -81.4513   28.5478  -71.6451 S.3       11 UNK        -0.2682 
      8 C8        -81.3549   29.5827  -73.1456 C.3       11 UNK         0.0289 
      9 C9        -79.9911   30.2041  -73.4638 C.ar      11 UNK        -0.0687 
     10 C10       -79.8761   30.9359  -74.6514 C.ar      11 UNK        -0.0823 
     11 C11       -78.6799   31.5714  -74.9933 C.ar      11 UNK        -0.0830 
     12 C12       -77.5890   31.4825  -74.1275 C.ar      11 UNK        -0.1021 
     13 C13       -77.6744   30.7426  -72.9476 C.ar      11 UNK        -0.0753 
     14 C14       -78.8741   30.1029  -72.6185 C.ar      11 UNK        -0.0933 
     15 C15       -76.4658   30.6729  -72.0276 C.3       11 UNK         0.0166 
     16 S16       -75.2703   29.4228  -72.5967 S.3       11 UNK        -0.2615 
     17 C17       -75.7352   27.9825  -71.5802 C.3       11 UNK        -0.0865 
     18 CA        -74.5294   27.0544  -71.2960 C.3       10 UNK         0.0862 
     19 C         -74.8796   26.0258  -70.1810 C.2       10 UNK         0.5551 
     20 N         -75.2230   24.7856  -70.5057 N.am      10 UNK        -0.7319 
     21 O         -74.8116   26.3573  -68.9998 O.2       10 UNK        -0.5018 
     22 N         -73.9935   26.4615  -72.5332 N.am      10 UNK        -0.4509 
     23 C         -72.8511   25.7645  -72.6042 C.2       10 UNK         0.4899 
     24 O         -72.0728   25.6133  -71.6619 O.2       10 UNK        -0.4839 
     25 CA        -72.5185   25.1240  -73.9558 C.3       9 UNK         0.0222 
     26 CB        -73.3731   23.8679  -74.1756 C.3       9 UNK        -0.1966 
     27 N         -72.7365   26.0481  -75.0656 N.am      9 UNK        -0.4218 
     28 C         -71.7988   26.8417  -75.5985 C.2       9 UNK         0.5020 
     29 O         -70.6502   26.9444  -75.1629 O.2       9 UNK        -0.5274 
     30 CA        -72.2293   27.6223  -76.8551 C.3       8 UNK         0.0270 
     31 CB        -71.0545   28.2698  -77.6184 C.3       8 UNK        -0.1976 
     32 N         -73.0602   26.7931  -77.7394 N.am      8 UNK        -0.4313 
     33 C         -72.7074   25.6699  -78.3845 C.2       8 UNK         0.5041 
     34 O         -71.5554   25.2395  -78.4483 O.2       8 UNK        -0.5577 
     35 CA        -73.8392   24.8556  -79.0361 C.3       7 UNK         0.0284 
     36 CB        -74.1515   23.6210  -78.1806 C.3       7 UNK        -0.1958 
     37 N         -75.0677   25.6362  -79.2141 N.am      7 UNK        -0.4454 
     38 C         -75.3181   26.3864  -80.2961 C.2       7 UNK         0.5089 
     39 O         -74.6044   26.4097  -81.2995 O.2       7 UNK        -0.5125 
     40 CA        -76.5458   27.3093  -80.2229 C.3       6 UNK         0.0408 
     41 CB        -77.8508   26.5138  -80.3862 C.3       6 UNK        -0.1791 
     42 N         -76.5853   28.0818  -78.9786 N.am      6 UNK        -0.4762 
     43 C         -75.6648   28.9844  -78.6003 C.2       6 UNK         0.5007 
     44 O         -74.6958   29.2978  -79.2912 O.2       6 UNK        -0.5032 
     45 CA        -75.8290   29.6417  -77.2131 C.3       5 UNK         0.0783 
     46 C46       -76.2644   31.1246  -77.3511 C.3       11 UNK        -0.0857 
     47 S47       -78.0479   31.3575  -77.6933 S.3       11 UNK        -0.2512 
     48 C48       -78.5780   32.3789  -76.2800 C.3       11 UNK         0.0225 
     49 N         -76.7093   28.8834  -76.3199 N.am      5 UNK        -0.4615 
     50 C         -76.4647   27.6733  -75.8017 C.2       4 UNK         0.5053 
     51 O         -75.3779   27.0946  -75.8944 O.2       4 UNK        -0.5105 
     52 CA        -77.6512   27.0076  -75.0760 C.3       4 UNK         0.0263 
     53 CB        -79.0134   27.3559  -75.7219 C.3       4 UNK        -0.1981 
     54 N         -77.5442   25.5490  -74.9577 N.am      4 UNK        -0.4224 
     55 C         -77.4549   24.6470  -75.9474 C.2       3 UNK         0.4895 
     56 O         -77.2345   24.9397  -77.1253 O.2       3 UNK        -0.5091 
     57 CA        -77.7489   23.1706  -75.5930 C.3       3 UNK         0.0250 
     58 CB        -76.5505   22.2418  -75.8553 C.3       3 UNK        -0.1996 
     59 N         -78.3148   22.9263  -74.2564 N.am      3 UNK        -0.4254 
     60 C         -77.7438   23.1026  -73.0571 C.2       2 UNK         0.5004 
     61 O         -76.6299   23.6013  -72.8854 O.2       2 UNK        -0.5226 
     62 CA        -78.6089   22.7332  -71.8431 C.3       2 UNK         0.0269 
     63 CB        -77.7852   22.0852  -70.7177 C.3       2 UNK        -0.1926 
     64 N         -79.2709   23.9310  -71.3311 N.am      2 UNK        -0.4687 
     65 C         -80.3465   24.5088  -71.8809 C.2       1 UNK         0.5165 
     66 O         -80.9374   24.0292  -72.8500 O.2       1 UNK        -0.5079 
     67 H67       -78.1604   26.0954  -67.6352 H         1 UNK         0.0900 
     68 H68       -79.8537   26.5548  -67.4331 H         1 UNK         0.0900 
     69 H69       -78.6557   27.7711  -67.8841 H         1 UNK         0.0900 
     70 H70       -81.1244   26.0039  -69.1778 H         1 UNK         0.2959 
     71 H71       -81.9542   25.6693  -71.1637 H         1 UNK         0.1079 
     72 H72       -81.1045   26.7716  -73.2083 H         1 UNK         0.0837 
     73 H73       -79.6099   27.1958  -72.4132 H         1 UNK         0.0837 
     74 H74       -81.6940   28.9967  -74.0011 H         1 UNK         0.0685 
     75 H75       -82.0741   30.3947  -73.0294 H         1 UNK         0.0685 
     76 H76       -80.7288   31.0195  -75.3121 H         1 UNK         0.1434 
     77 H77       -76.6652   31.9908  -74.3638 H         1 UNK         0.1329 
     78 H78       -78.9291   29.5456  -71.6943 H         1 UNK         0.1335 
     79 H79       -75.9676   31.6436  -72.0142 H         1 UNK         0.0680 
     80 H80       -76.7724   30.4845  -70.9980 H         1 UNK         0.0680 
     81 H81       -76.5342   27.4319  -72.0759 H         1 UNK         0.1032 
     82 H82       -76.1582   28.3388  -70.6390 H         1 UNK         0.1032 
     83 H83       -73.7327   27.6768  -70.8832 H         1 UNK         0.0461 
     84 H84       -75.3704   24.5142  -71.4701 H         1 UNK         0.3453 
     85 H85       -75.4234   24.1327  -69.7675 H         1 UNK         0.3453 
     86 H86       -74.5636   26.5581  -73.3598 H         1 UNK         0.2984 
     87 H87       -71.4708   24.8158  -73.9361 H         1 UNK         0.0554 
     88 H88       -73.2652   23.1663  -73.3472 H         1 UNK         0.0847 
     89 H89       -73.0829   23.3438  -75.0862 H         1 UNK         0.0847 
     90 H90       -74.4301   24.1205  -74.2536 H         1 UNK         0.0847 
     91 H91       -73.6747   26.1066  -75.4496 H         1 UNK         0.3141 
     92 H92       -72.8679   28.4295  -76.4978 H         1 UNK         0.0743 
     93 H93       -70.5281   28.9860  -76.9864 H         1 UNK         0.0784 
     94 H94       -70.3235   27.5304  -77.9463 H         1 UNK         0.0784 
     95 H95       -71.4053   28.8095  -78.4981 H         1 UNK         0.0784 
     96 H96       -74.0482   27.0071  -77.7168 H         1 UNK         0.3213 
     97 H97       -73.4784   24.5099  -80.0075 H         1 UNK         0.0855 
     98 H98       -73.2628   23.0043  -78.0394 H         1 UNK         0.0814 
     99 H99       -74.9063   22.9965  -78.6579 H         1 UNK         0.0814 
    100 H100      -74.5130   23.9044  -77.1919 H         1 UNK         0.0814 
    101 H101      -75.7432   25.6209  -78.4546 H         1 UNK         0.3105 
    102 H102      -76.4784   28.0190  -81.0502 H         1 UNK         0.0547 
    103 H103      -77.8427   25.9399  -81.3138 H         1 UNK         0.0837 
    104 H104      -78.0048   25.8080  -79.5693 H         1 UNK         0.0837 
    105 H105      -78.7162   27.1754  -80.4244 H         1 UNK         0.0837 
    106 H106      -77.3475   27.8873  -78.3464 H         1 UNK         0.3020 
    107 H107      -74.8366   29.6387  -76.7595 H         1 UNK         0.1245 
    108 H108      -75.6983   31.6272  -78.1382 H         1 UNK         0.0781 
    109 H109      -75.9941   31.6601  -76.4433 H         1 UNK         0.0781 
    110 H110      -79.5481   32.8201  -76.5139 H         1 UNK         0.0836 
    111 H111      -77.8921   33.2181  -76.1533 H         1 UNK         0.0836 
    112 H112      -77.6116   29.3080  -76.1564 H         1 UNK         0.3022 
    113 H113      -77.6536   27.4045  -74.0615 H         1 UNK         0.0747 
    114 H114      -79.2441   28.4167  -75.6426 H         1 UNK         0.0793 
    115 H115      -79.0399   27.0914  -76.7798 H         1 UNK         0.0793 
    116 H116      -79.8286   26.8228  -75.2342 H         1 UNK         0.0793 
    117 H117      -77.6004   25.1746  -74.0196 H         1 UNK         0.3047 
    118 H118      -78.5360   22.8694  -76.2860 H         1 UNK         0.0822 
    119 H119      -76.2647   22.2703  -76.9050 H         1 UNK         0.0807 
    120 H120      -76.7967   21.2053  -75.6249 H         1 UNK         0.0807 
    121 H121      -75.6805   22.5144  -75.2619 H         1 UNK         0.0807 
    122 H122      -79.2754   22.6083  -74.2613 H         1 UNK         0.2946 
    123 H123      -79.3647   22.0091  -72.1570 H         1 UNK         0.1144 
    124 H124      -78.4281   21.7407  -69.9076 H         1 UNK         0.0793 
    125 H125      -77.0592   22.7765  -70.2932 H         1 UNK         0.0793 
    126 H126      -77.2348   21.2186  -71.0863 H         1 UNK         0.0793 
    127 H127      -78.7873   24.4491  -70.6083 H         1 UNK         0.2896 
@<TRIPOS>BOND
     1    1    2 1    
     2    1   67 1    
     3    1   68 1    
     4    1   69 1    
     5    2    3 2    
     6    2    4 am   BACKBONE|DICT|INTERRES
     7    4    5 1    
     8    4   70 1    
     9    5    6 1    
    10    5   65 1    
    11    5   71 1    
    12    6    7 1    
    13    6   72 1    
    14    6   73 1    
    15    7    8 1    
    16    8    9 1    
    17    8   74 1    
    18    8   75 1    
    19    9   10 ar   
    20    9   14 ar   
    21   10   11 ar   
    22   10   76 1    
    23   11   12 ar   
    24   11   48 1    
    25   12   13 ar   
    26   12   77 1    
    27   13   14 ar   
    28   13   15 1    
    29   14   78 1    
    30   15   16 1    
    31   15   79 1    
    32   15   80 1    
    33   16   17 1    
    34   17   18 1    
    35   17   81 1    
    36   17   82 1    
    37   18   19 1    
    38   18   22 1    
    39   18   83 1    
    40   19   20 am   BACKBONE|DICT|INTERRES
    41   19   21 2    
    42   20   84 1    
    43   20   85 1    
    44   22   23 am   BACKBONE|DICT|INTERRES
    45   22   86 1    
    46   23   24 2    
    47   23   25 1    
    48   25   26 1    
    49   25   27 1    
    50   25   87 1    
    51   26   88 1    
    52   26   89 1    
    53   26   90 1    
    54   27   28 am   BACKBONE|DICT|INTERRES
    55   27   91 1    
    56   28   29 2    
    57   28   30 1    
    58   30   31 1    
    59   30   32 1    
    60   30   92 1    
    61   31   93 1    
    62   31   94 1    
    63   31   95 1    
    64   32   33 am   BACKBONE|DICT|INTERRES
    65   32   96 1    
    66   33   34 2    
    67   33   35 1    
    68   35   36 1    
    69   35   37 1    
    70   35   97 1    
    71   36   98 1    
    72   36   99 1    
    73   36  100 1    
    74   37   38 am   BACKBONE|DICT|INTERRES
    75   37  101 1    
    76   38   39 2    
    77   38   40 1    
    78   40   41 1    
    79   40   42 1    
    80   40  102 1    
    81   41  103 1    
    82   41  104 1    
    83   41  105 1    
    84   42   43 am   BACKBONE|DICT|INTERRES
    85   42  106 1    
    86   43   44 2    
    87   43   45 1    
    88   45   46 1    
    89   45   49 1    
    90   45  107 1    
    91   46   47 1    
    92   46  108 1    
    93   46  109 1    
    94   47   48 1    
    95   48  110 1    
    96   48  111 1    
    97   49   50 am   BACKBONE|DICT|INTERRES
    98   49  112 1    
    99   50   51 2    
   100   50   52 1    
   101   52   53 1    
   102   52   54 1    
   103   52  113 1    
   104   53  114 1    
   105   53  115 1    
   106   53  116 1    
   107   54   55 am   BACKBONE|DICT|INTERRES
   108   54  117 1    
   109   55   56 2    
   110   55   57 1    
   111   57   58 1    
   112   57   59 1    
   113   57  118 1    
   114   58  119 1    
   115   58  120 1    
   116   58  121 1    
   117   59   60 am   BACKBONE|DICT|INTERRES
   118   59  122 1    
   119   60   61 2    
   120   60   62 1    
   121   62   63 1    
   122   62   64 1    
   123   62  123 1    
   124   63  124 1    
   125   63  125 1    
   126   63  126 1    
   127   64   65 am   BACKBONE|DICT|INTERRES
   128   64  127 1    
   129   65   66 2    
@<TRIPOS>SUBSTRUCTURE
     1 UNK         1 GROUP             0       ****    0 ROOT    
