@<TRIPOS>MOLECULE
3R135
127   129    1
SMALL
USER_CHARGES


@<TRIPOS>ATOM
      1 CA        -77.8729   30.0118  -78.1859 C.3       0 UNK        -0.1998 
      2 C         -78.6929   29.0380  -77.3532 C.2       0 UNK         0.4909 
      3 O         -78.8305   27.8761  -77.7365 O.2       0 UNK        -0.5240 
      4 N         -79.2255   29.5047  -76.2136 N.am      1 UNK        -0.4739 
      5 CA        -80.0186   28.7279  -75.2533 C.3       1 UNK         0.0864 
      6 C6        -80.4249   29.5735  -74.0193 C.3       11 UNK        -0.0881 
      7 S7        -78.9882   29.9551  -72.9615 S.3       11 UNK        -0.2682 
      8 C8        -79.1557   28.6465  -71.7032 C.3       11 UNK         0.0289 
      9 C9        -77.8263   28.2493  -71.0711 C.ar      11 UNK        -0.0687 
     10 C10       -77.3576   26.9359  -71.1930 C.ar      11 UNK        -0.0823 
     11 C11       -76.1934   26.5285  -70.5325 C.ar      11 UNK        -0.0830 
     12 C12       -75.4789   27.4583  -69.7700 C.ar      11 UNK        -0.1021 
     13 C13       -75.9308   28.7768  -69.6462 C.ar      11 UNK        -0.0753 
     14 C14       -77.1047   29.1658  -70.3000 C.ar      11 UNK        -0.0933 
     15 C15       -75.1959   29.7523  -68.7359 C.3       11 UNK         0.0166 
     16 S16       -73.7454   30.5086  -69.5337 S.3       11 UNK        -0.2615 
     17 C17       -74.5083   31.7794  -70.6085 C.3       11 UNK        -0.0865 
     18 CA        -74.1155   31.6428  -72.1030 C.3       10 UNK         0.0862 
     19 C         -72.6458   32.0940  -72.3694 C.2       10 UNK         0.5551 
     20 N         -71.7614   31.2505  -72.8911 N.am      10 UNK        -0.7319 
     21 O         -72.3054   33.2450  -72.1060 O.2       10 UNK        -0.5018 
     22 N         -74.4650   30.3133  -72.6157 N.am      10 UNK        -0.4509 
     23 C         -74.5692   29.9846  -73.9054 C.2       10 UNK         0.4899 
     24 O         -74.5146   30.7865  -74.8400 O.2       10 UNK        -0.4839 
     25 CA        -74.7550   28.4885  -74.1846 C.3       9 UNK         0.0222 
     26 CB        -76.2020   28.1839  -74.5838 C.3       9 UNK        -0.1966 
     27 N         -73.8398   27.9955  -75.2163 N.am      9 UNK        -0.4218 
     28 C         -72.5027   27.9724  -75.0905 C.2       9 UNK         0.5020 
     29 O         -71.9134   28.4140  -74.1013 O.2       9 UNK        -0.5274 
     30 CA        -71.6687   27.3228  -76.2119 C.3       8 UNK         0.0270 
     31 CB        -70.8106   26.1744  -75.6509 C.3       8 UNK        -0.1976 
     32 N         -72.4906   26.7991  -77.3052 N.am      8 UNK        -0.4313 
     33 C         -72.7435   27.4488  -78.4500 C.2       8 UNK         0.5041 
     34 O         -72.2663   28.5496  -78.7288 O.2       8 UNK        -0.5577 
     35 CA        -73.6934   26.7741  -79.4619 C.3       7 UNK         0.0284 
     36 CB        -72.8880   26.0995  -80.5845 C.3       7 UNK        -0.1958 
     37 N         -74.6181   25.7938  -78.8805 N.am      7 UNK        -0.4454 
     38 C         -75.5320   26.0638  -77.9385 C.2       7 UNK         0.5089 
     39 O         -75.6774   27.1826  -77.4504 O.2       7 UNK        -0.5125 
     40 CA        -76.3801   24.8909  -77.4021 C.3       6 UNK         0.0408 
     41 CB        -76.3253   23.6222  -78.2806 C.3       6 UNK        -0.1791 
     42 N         -76.0491   24.5430  -76.0139 N.am      6 UNK        -0.4762 
     43 C         -74.8278   24.3144  -75.4977 C.2       6 UNK         0.5007 
     44 O         -73.7801   24.4125  -76.1391 O.2       6 UNK        -0.5032 
     45 CA        -74.7571   23.9019  -74.0116 C.3       5 UNK         0.0783 
     46 C46       -74.5515   25.1509  -73.1248 C.3       11 UNK        -0.0857 
     47 S47       -74.1727   24.7690  -71.3860 S.3       11 UNK        -0.2512 
     48 C48       -75.7699   25.0623  -70.5584 C.3       11 UNK         0.0225 
     49 N         -75.9341   23.1321  -73.6021 N.am      5 UNK        -0.4615 
     50 C         -76.2342   21.8988  -74.0247 C.2       4 UNK         0.5053 
     51 O         -75.5123   21.2288  -74.7634 O.2       4 UNK        -0.5105 
     52 CA        -77.5799   21.3183  -73.5590 C.3       4 UNK         0.0263 
     53 CB        -77.9988   21.7883  -72.1465 C.3       4 UNK        -0.1981 
     54 N         -78.6500   21.5618  -74.5342 N.am      4 UNK        -0.4224 
     55 C         -79.1180   22.7449  -74.9604 C.2       3 UNK         0.4895 
     56 O         -78.6710   23.8378  -74.5949 O.2       3 UNK        -0.5091 
     57 CA        -80.2917   22.7068  -75.9546 C.3       3 UNK         0.0250 
     58 CB        -81.2896   21.5595  -75.6790 C.3       3 UNK        -0.1996 
     59 N         -80.9784   23.9941  -75.8960 N.am      3 UNK        -0.4254 
     60 C         -81.7538   24.5265  -76.8490 C.2       2 UNK         0.5004 
     61 O         -82.0202   23.9669  -77.9130 O.2       2 UNK        -0.5226 
     62 CA        -82.3081   25.9307  -76.5739 C.3       2 UNK         0.0269 
     63 CB        -83.5958   25.8629  -75.7313 C.3       2 UNK        -0.1926 
     64 N         -81.2958   26.7541  -75.9120 N.am      2 UNK        -0.4687 
     65 C         -81.2568   28.0904  -75.9168 C.2       1 UNK         0.5165 
     66 O         -82.1269   28.8093  -76.4140 O.2       1 UNK        -0.5079 
     67 H67       -77.8244   31.0001  -77.7293 H         1 UNK         0.0900 
     68 H68       -78.3075   30.1156  -79.1796 H         1 UNK         0.0900 
     69 H69       -76.8544   29.6391  -78.2953 H         1 UNK         0.0900 
     70 H70       -79.0785   30.4714  -75.9619 H         1 UNK         0.2959 
     71 H71       -79.3741   27.9170  -74.9063 H         1 UNK         0.1079 
     72 H72       -80.8887   30.5105  -74.3332 H         1 UNK         0.0837 
     73 H73       -81.1780   29.0605  -73.4172 H         1 UNK         0.0837 
     74 H74       -79.6246   27.7707  -72.1544 H         1 UNK         0.0685 
     75 H75       -79.8376   28.9894  -70.9238 H         1 UNK         0.0685 
     76 H76       -77.9267   26.2165  -71.7660 H         1 UNK         0.1434 
     77 H77       -74.5882   27.1448  -69.2422 H         1 UNK         0.1329 
     78 H78       -77.4783   30.1742  -70.1863 H         1 UNK         0.1335 
     79 H79       -75.8692   30.5346  -68.3816 H         1 UNK         0.0680 
     80 H80       -74.8600   29.2230  -67.8429 H         1 UNK         0.0680 
     81 H81       -74.2398   32.7660  -70.2261 H         1 UNK         0.1032 
     82 H82       -75.5938   31.7275  -70.5203 H         1 UNK         0.1032 
     83 H83       -74.7320   32.3565  -72.6530 H         1 UNK         0.0461 
     84 H84       -70.8199   31.5681  -73.0559 H         1 UNK         0.3453 
     85 H85       -72.0203   30.3025  -73.1371 H         1 UNK         0.3453 
     86 H86       -74.5197   29.5868  -71.9153 H         1 UNK         0.2984 
     87 H87       -74.5349   27.9440  -73.2653 H         1 UNK         0.0554 
     88 H88       -76.3426   27.1435  -74.8703 H         1 UNK         0.0847 
     89 H89       -76.5240   28.8076  -75.4169 H         1 UNK         0.0847 
     90 H90       -76.8696   28.3741  -73.7493 H         1 UNK         0.0847 
     91 H91       -74.2665   27.6803  -76.0819 H         1 UNK         0.3141 
     92 H92       -70.9913   28.0910  -76.5905 H         1 UNK         0.0743 
     93 H93       -70.1268   26.5351  -74.8813 H         1 UNK         0.0784 
     94 H94       -71.4239   25.3935  -75.2001 H         1 UNK         0.0784 
     95 H95       -70.2030   25.7155  -76.4310 H         1 UNK         0.0784 
     96 H96       -72.9428   25.9038  -77.1345 H         1 UNK         0.3213 
     97 H97       -74.2995   27.5671  -79.9053 H         1 UNK         0.0855 
     98 H98       -72.2109   26.8104  -81.0605 H         1 UNK         0.0814 
     99 H99       -73.5416   25.7078  -81.3642 H         1 UNK         0.0814 
    100 H100      -72.2812   25.2757  -80.2065 H         1 UNK         0.0814 
    101 H101      -74.5306   24.8405  -79.2009 H         1 UNK         0.3105 
    102 H102      -77.4128   25.2436  -77.3939 H         1 UNK         0.0547 
    103 H103      -76.5971   23.8424  -79.3139 H         1 UNK         0.0837 
    104 H104      -75.3365   23.1621  -78.2816 H         1 UNK         0.0837 
    105 H105      -77.0305   22.8726  -77.9212 H         1 UNK         0.0837 
    106 H106      -76.8477   24.4361  -75.3964 H         1 UNK         0.3020 
    107 H107      -73.8819   23.2563  -73.9064 H         1 UNK         0.1245 
    108 H108      -75.4276   25.7968  -73.1684 H         1 UNK         0.0781 
    109 H109      -73.7092   25.7362  -73.4956 H         1 UNK         0.0781 
    110 H110      -75.6912   24.7076  -69.5297 H         1 UNK         0.0836 
    111 H111      -76.5359   24.4431  -71.0255 H         1 UNK         0.0836 
    112 H112      -76.6183   23.6158  -73.0411 H         1 UNK         0.3022 
    113 H113      -77.4445   20.2365  -73.5118 H         1 UNK         0.0747 
    114 H114      -78.8606   21.2235  -71.7908 H         1 UNK         0.0793 
    115 H115      -77.1947   21.6309  -71.4261 H         1 UNK         0.0793 
    116 H116      -78.2683   22.8440  -72.1150 H         1 UNK         0.0793 
    117 H117      -79.0684   20.7286  -74.9237 H         1 UNK         0.3047 
    118 H118      -79.8651   22.5821  -76.9522 H         1 UNK         0.0822 
    119 H119      -82.1464   21.6068  -76.3514 H         1 UNK         0.0807 
    120 H120      -81.6705   21.5951  -74.6574 H         1 UNK         0.0807 
    121 H121      -80.8320   20.5816  -75.8304 H         1 UNK         0.0807 
    122 H122      -80.7883   24.5166  -75.0519 H         1 UNK         0.2946 
    123 H123      -82.5439   26.3796  -77.5419 H         1 UNK         0.1144 
    124 H124      -84.0470   26.8480  -75.6125 H         1 UNK         0.0793 
    125 H125      -83.4066   25.4592  -74.7361 H         1 UNK         0.0793 
    126 H126      -84.3401   25.2236  -76.2081 H         1 UNK         0.0793 
    127 H127      -80.4874   26.2580  -75.5644 H         1 UNK         0.2896 
@<TRIPOS>BOND
     1    1    2 1    
     2    1   67 1    
     3    1   68 1    
     4    1   69 1    
     5    2    3 2    
     6    2    4 am   BACKBONE|DICT|INTERRES
     7    4    5 1    
     8    4   70 1    
     9    5    6 1    
    10    5   65 1    
    11    5   71 1    
    12    6    7 1    
    13    6   72 1    
    14    6   73 1    
    15    7    8 1    
    16    8    9 1    
    17    8   74 1    
    18    8   75 1    
    19    9   10 ar   
    20    9   14 ar   
    21   10   11 ar   
    22   10   76 1    
    23   11   12 ar   
    24   11   48 1    
    25   12   13 ar   
    26   12   77 1    
    27   13   14 ar   
    28   13   15 1    
    29   14   78 1    
    30   15   16 1    
    31   15   79 1    
    32   15   80 1    
    33   16   17 1    
    34   17   18 1    
    35   17   81 1    
    36   17   82 1    
    37   18   19 1    
    38   18   22 1    
    39   18   83 1    
    40   19   20 am   BACKBONE|DICT|INTERRES
    41   19   21 2    
    42   20   84 1    
    43   20   85 1    
    44   22   23 am   BACKBONE|DICT|INTERRES
    45   22   86 1    
    46   23   24 2    
    47   23   25 1    
    48   25   26 1    
    49   25   27 1    
    50   25   87 1    
    51   26   88 1    
    52   26   89 1    
    53   26   90 1    
    54   27   28 am   BACKBONE|DICT|INTERRES
    55   27   91 1    
    56   28   29 2    
    57   28   30 1    
    58   30   31 1    
    59   30   32 1    
    60   30   92 1    
    61   31   93 1    
    62   31   94 1    
    63   31   95 1    
    64   32   33 am   BACKBONE|DICT|INTERRES
    65   32   96 1    
    66   33   34 2    
    67   33   35 1    
    68   35   36 1    
    69   35   37 1    
    70   35   97 1    
    71   36   98 1    
    72   36   99 1    
    73   36  100 1    
    74   37   38 am   BACKBONE|DICT|INTERRES
    75   37  101 1    
    76   38   39 2    
    77   38   40 1    
    78   40   41 1    
    79   40   42 1    
    80   40  102 1    
    81   41  103 1    
    82   41  104 1    
    83   41  105 1    
    84   42   43 am   BACKBONE|DICT|INTERRES
    85   42  106 1    
    86   43   44 2    
    87   43   45 1    
    88   45   46 1    
    89   45   49 1    
    90   45  107 1    
    91   46   47 1    
    92   46  108 1    
    93   46  109 1    
    94   47   48 1    
    95   48  110 1    
    96   48  111 1    
    97   49   50 am   BACKBONE|DICT|INTERRES
    98   49  112 1    
    99   50   51 2    
   100   50   52 1    
   101   52   53 1    
   102   52   54 1    
   103   52  113 1    
   104   53  114 1    
   105   53  115 1    
   106   53  116 1    
   107   54   55 am   BACKBONE|DICT|INTERRES
   108   54  117 1    
   109   55   56 2    
   110   55   57 1    
   111   57   58 1    
   112   57   59 1    
   113   57  118 1    
   114   58  119 1    
   115   58  120 1    
   116   58  121 1    
   117   59   60 am   BACKBONE|DICT|INTERRES
   118   59  122 1    
   119   60   61 2    
   120   60   62 1    
   121   62   63 1    
   122   62   64 1    
   123   62  123 1    
   124   63  124 1    
   125   63  125 1    
   126   63  126 1    
   127   64   65 am   BACKBONE|DICT|INTERRES
   128   64  127 1    
   129   65   66 2    
@<TRIPOS>SUBSTRUCTURE
     1 UNK         1 GROUP             0       ****    0 ROOT    
