@<TRIPOS>MOLECULE
3R135
127   129    1
SMALL
USER_CHARGES


@<TRIPOS>ATOM
      1 CA        -80.0725   28.8546  -70.1486 C.3       0 UNK        -0.1998 
      2 C         -81.0913   28.8108  -71.2755 C.2       0 UNK         0.4909 
      3 O         -82.2800   28.6151  -71.0205 O.2       0 UNK        -0.5240 
      4 N         -80.6362   28.9963  -72.5222 N.am      1 UNK        -0.4739 
      5 CA        -81.4806   28.9869  -73.7244 C.3       1 UNK         0.0864 
      6 C6        -80.8565   29.8205  -74.8773 C.3       11 UNK        -0.0881 
      7 S7        -79.5046   29.0226  -75.8167 S.3       11 UNK        -0.2682 
      8 C8        -78.0112   29.7655  -75.0805 C.3       11 UNK         0.0289 
      9 C9        -77.6344   29.1715  -73.7267 C.ar      11 UNK        -0.0687 
     10 C10       -77.7072   27.7925  -73.4976 C.ar      11 UNK        -0.0823 
     11 C11       -77.3235   27.2498  -72.2684 C.ar      11 UNK        -0.0830 
     12 C12       -76.8257   28.0945  -71.2732 C.ar      11 UNK        -0.1021 
     13 C13       -76.7311   29.4719  -71.4926 C.ar      11 UNK        -0.0753 
     14 C14       -77.1617   30.0066  -72.7103 C.ar      11 UNK        -0.0933 
     15 C15       -76.1592   30.3750  -70.4108 C.3       11 UNK         0.0166 
     16 S16       -74.3442   30.4898  -70.5312 S.3       11 UNK        -0.2615 
     17 C17       -74.1135   31.7791  -71.8077 C.3       11 UNK        -0.0865 
     18 CA        -73.8503   31.2204  -73.2398 C.3       10 UNK         0.0862 
     19 C         -73.7564   32.3380  -74.3244 C.2       10 UNK         0.5551 
     20 N         -74.6764   33.2945  -74.3243 N.am      10 UNK        -0.7319 
     21 O         -72.8869   32.3378  -75.1940 O.2       10 UNK        -0.5018 
     22 N         -72.7460   30.2520  -73.2952 N.am      10 UNK        -0.4509 
     23 C         -71.4517   30.4715  -73.0442 C.2       10 UNK         0.4899 
     24 O         -70.9963   31.5407  -72.6363 O.2       10 UNK        -0.4839 
     25 CA        -70.4862   29.2988  -73.3048 C.3       9 UNK         0.0222 
     26 CB        -70.5065   28.2940  -72.1354 C.3       9 UNK        -0.1966 
     27 N         -70.6696   28.6285  -74.6048 N.am      9 UNK        -0.4218 
     28 C         -71.7083   27.8970  -75.0350 C.2       9 UNK         0.5020 
     29 O         -72.7115   27.6550  -74.3584 O.2       9 UNK        -0.5274 
     30 CA        -71.5944   27.3307  -76.4590 C.3       8 UNK         0.0270 
     31 CB        -70.7770   26.0283  -76.4583 C.3       8 UNK        -0.1976 
     32 N         -72.9256   27.0656  -77.0079 N.am      8 UNK        -0.4313 
     33 C         -73.6947   27.9912  -77.6006 C.2       8 UNK         0.5041 
     34 O         -73.3039   29.1367  -77.8331 O.2       8 UNK        -0.5577 
     35 CA        -75.1433   27.6065  -77.9810 C.3       7 UNK         0.0284 
     36 CB        -75.6026   28.2661  -79.2989 C.3       7 UNK        -0.1958 
     37 N         -75.4099   26.1631  -77.9962 N.am      7 UNK        -0.4454 
     38 C         -74.8580   25.2254  -78.7822 C.2       7 UNK         0.5089 
     39 O         -74.0825   25.4697  -79.7074 O.2       7 UNK        -0.5125 
     40 CA        -75.2157   23.7614  -78.4390 C.3       6 UNK         0.0408 
     41 CB        -74.1341   22.7646  -78.9047 C.3       6 UNK        -0.1791 
     42 N         -75.5290   23.5519  -77.0154 N.am      6 UNK        -0.4762 
     43 C         -74.7356   23.8326  -75.9657 C.2       6 UNK         0.5007 
     44 O         -73.5988   24.2868  -76.0893 O.2       6 UNK        -0.5032 
     45 CA        -75.3066   23.6513  -74.5436 C.3       5 UNK         0.0783 
     46 C46       -75.4369   25.0313  -73.8538 C.3       11 UNK        -0.0857 
     47 S47       -75.8538   24.8959  -72.0839 S.3       11 UNK        -0.2512 
     48 C48       -77.4556   25.7547  -72.0102 C.3       11 UNK         0.0225 
     49 N         -76.5736   22.9098  -74.5419 N.am      5 UNK        -0.4615 
     50 C         -76.6580   21.5738  -74.5995 C.2       4 UNK         0.5053 
     51 O         -75.6776   20.8290  -74.6033 O.2       4 UNK        -0.5105 
     52 CA        -78.0658   20.9541  -74.6835 C.3       4 UNK         0.0263 
     53 CB        -78.5529   20.5528  -73.2817 C.3       4 UNK        -0.1981 
     54 N         -79.0774   21.8100  -75.3126 N.am      4 UNK        -0.4224 
     55 C         -79.0273   22.3079  -76.5575 C.2       3 UNK         0.4895 
     56 O         -78.0935   22.1109  -77.3344 O.2       3 UNK        -0.5091 
     57 CA        -80.2012   23.1951  -77.0133 C.3       3 UNK         0.0250 
     58 CB        -81.1386   22.4060  -77.9416 C.3       3 UNK        -0.1996 
     59 N         -80.9846   23.7727  -75.9143 N.am      3 UNK        -0.4254 
     60 C         -80.5177   24.6710  -75.0373 C.2       2 UNK         0.5004 
     61 O         -79.3549   25.0819  -75.0329 O.2       2 UNK        -0.5226 
     62 CA        -81.4927   25.1250  -73.9434 C.3       2 UNK         0.0269 
     63 CB        -81.3085   24.2728  -72.6765 C.3       2 UNK        -0.1926 
     64 N         -81.2599   26.5286  -73.6103 N.am      2 UNK        -0.4687 
     65 C         -81.9098   27.5648  -74.1590 C.2       1 UNK         0.5165 
     66 O         -82.8262   27.4361  -74.9731 O.2       1 UNK        -0.5079 
     67 H67       -79.3163   29.6159  -70.3345 H         1 UNK         0.0900 
     68 H68       -79.5793   27.8886  -70.0454 H         1 UNK         0.0900 
     69 H69       -80.5575   29.0926  -69.2022 H         1 UNK         0.0900 
     70 H70       -79.6456   29.1291  -72.6827 H         1 UNK         0.2959 
     71 H71       -82.4111   29.4931  -73.4561 H         1 UNK         0.1079 
     72 H72       -81.6383   30.0593  -75.6006 H         1 UNK         0.0837 
     73 H73       -80.5187   30.7869  -74.4998 H         1 UNK         0.0837 
     74 H74       -77.1761   29.6060  -75.7633 H         1 UNK         0.0685 
     75 H75       -78.1462   30.8460  -75.0112 H         1 UNK         0.0685 
     76 H76       -78.0672   27.1396  -74.2801 H         1 UNK         0.1434 
     77 H77       -76.5036   27.6770  -70.3289 H         1 UNK         0.1329 
     78 H78       -77.0926   31.0724  -72.8786 H         1 UNK         0.1335 
     79 H79       -76.6082   31.3682  -70.4557 H         1 UNK         0.0680 
     80 H80       -76.4168   29.9742  -69.4292 H         1 UNK         0.0680 
     81 H81       -73.2800   32.4107  -71.4965 H         1 UNK         0.1032 
     82 H82       -74.9879   32.4299  -71.7970 H         1 UNK         0.1032 
     83 H83       -74.7162   30.6327  -73.5363 H         1 UNK         0.0461 
     84 H84       -75.4187   33.3181  -73.6445 H         1 UNK         0.3453 
     85 H85       -74.6277   34.0111  -75.0317 H         1 UNK         0.3453 
     86 H86       -72.9896   29.3243  -73.6346 H         1 UNK         0.2984 
     87 H87       -69.4829   29.7265  -73.3420 H         1 UNK         0.0554 
     88 H88       -69.7749   27.4994  -72.2812 H         1 UNK         0.0847 
     89 H89       -71.4854   27.8301  -72.0097 H         1 UNK         0.0847 
     90 H90       -70.2643   28.7901  -71.1947 H         1 UNK         0.0847 
     91 H91       -69.9134   28.7780  -75.2592 H         1 UNK         0.3141 
     92 H92       -71.0836   28.0593  -77.0924 H         1 UNK         0.0743 
     93 H93       -71.1862   25.2937  -75.7638 H         1 UNK         0.0784 
     94 H94       -70.7509   25.5741  -77.4491 H         1 UNK         0.0784 
     95 H95       -69.7448   26.2144  -76.1593 H         1 UNK         0.0784 
     96 H96       -73.3155   26.1521  -76.7970 H         1 UNK         0.3213 
     97 H97       -75.7673   28.0108  -77.1826 H         1 UNK         0.0855 
     98 H98       -75.5559   29.3536  -79.2302 H         1 UNK         0.0814 
     99 H99       -76.6335   28.0038  -79.5362 H         1 UNK         0.0814 
    100 H100      -74.9767   27.9685  -80.1405 H         1 UNK         0.0814 
    101 H101      -76.0375   25.8324  -77.2769 H         1 UNK         0.3105 
    102 H102      -76.1314   23.5364  -78.9876 H         1 UNK         0.0547 
    103 H103      -73.9939   22.8142  -79.9851 H         1 UNK         0.0837 
    104 H104      -73.1681   22.9703  -78.4424 H         1 UNK         0.0837 
    105 H105      -74.4107   21.7386  -78.6627 H         1 UNK         0.0837 
    106 H106      -76.4427   23.1450  -76.8375 H         1 UNK         0.3020 
    107 H107      -74.5622   23.0734  -73.9904 H         1 UNK         0.1245 
    108 H108      -76.1756   25.6423  -74.3724 H         1 UNK         0.0781 
    109 H109      -74.4976   25.5855  -73.9109 H         1 UNK         0.0781 
    110 H110      -77.8953   25.5964  -71.0244 H         1 UNK         0.0836 
    111 H111      -78.1385   25.2958  -72.7241 H         1 UNK         0.0836 
    112 H112      -77.4231   23.4581  -74.5406 H         1 UNK         0.3022 
    113 H113      -77.9835   20.0501  -75.2906 H         1 UNK         0.0747 
    114 H114      -79.5019   20.0180  -73.3274 H         1 UNK         0.0793 
    115 H115      -77.8354   19.8919  -72.7929 H         1 UNK         0.0793 
    116 H116      -78.6862   21.4224  -72.6365 H         1 UNK         0.0793 
    117 H117      -79.8895   22.0285  -74.7554 H         1 UNK         0.3047 
    118 H118      -79.7723   24.0220  -77.5839 H         1 UNK         0.0822 
    119 H119      -81.9224   23.0437  -78.3509 H         1 UNK         0.0807 
    120 H120      -81.6171   21.5747  -77.4220 H         1 UNK         0.0807 
    121 H121      -80.5903   21.9886  -78.7876 H         1 UNK         0.0807 
    122 H122      -81.9459   23.4702  -75.8410 H         1 UNK         0.2946 
    123 H123      -82.5172   24.9970  -74.3011 H         1 UNK         0.1144 
    124 H124      -81.5124   23.2204  -72.8781 H         1 UNK         0.0793 
    125 H125      -81.9924   24.5869  -71.8876 H         1 UNK         0.0793 
    126 H126      -80.2942   24.3380  -72.2825 H         1 UNK         0.0793 
    127 H127      -80.4868   26.7286  -72.9939 H         1 UNK         0.2896 
@<TRIPOS>BOND
     1    1    2 1    
     2    1   67 1    
     3    1   68 1    
     4    1   69 1    
     5    2    3 2    
     6    2    4 am   BACKBONE|DICT|INTERRES
     7    4    5 1    
     8    4   70 1    
     9    5    6 1    
    10    5   65 1    
    11    5   71 1    
    12    6    7 1    
    13    6   72 1    
    14    6   73 1    
    15    7    8 1    
    16    8    9 1    
    17    8   74 1    
    18    8   75 1    
    19    9   10 ar   
    20    9   14 ar   
    21   10   11 ar   
    22   10   76 1    
    23   11   12 ar   
    24   11   48 1    
    25   12   13 ar   
    26   12   77 1    
    27   13   14 ar   
    28   13   15 1    
    29   14   78 1    
    30   15   16 1    
    31   15   79 1    
    32   15   80 1    
    33   16   17 1    
    34   17   18 1    
    35   17   81 1    
    36   17   82 1    
    37   18   19 1    
    38   18   22 1    
    39   18   83 1    
    40   19   20 am   BACKBONE|DICT|INTERRES
    41   19   21 2    
    42   20   84 1    
    43   20   85 1    
    44   22   23 am   BACKBONE|DICT|INTERRES
    45   22   86 1    
    46   23   24 2    
    47   23   25 1    
    48   25   26 1    
    49   25   27 1    
    50   25   87 1    
    51   26   88 1    
    52   26   89 1    
    53   26   90 1    
    54   27   28 am   BACKBONE|DICT|INTERRES
    55   27   91 1    
    56   28   29 2    
    57   28   30 1    
    58   30   31 1    
    59   30   32 1    
    60   30   92 1    
    61   31   93 1    
    62   31   94 1    
    63   31   95 1    
    64   32   33 am   BACKBONE|DICT|INTERRES
    65   32   96 1    
    66   33   34 2    
    67   33   35 1    
    68   35   36 1    
    69   35   37 1    
    70   35   97 1    
    71   36   98 1    
    72   36   99 1    
    73   36  100 1    
    74   37   38 am   BACKBONE|DICT|INTERRES
    75   37  101 1    
    76   38   39 2    
    77   38   40 1    
    78   40   41 1    
    79   40   42 1    
    80   40  102 1    
    81   41  103 1    
    82   41  104 1    
    83   41  105 1    
    84   42   43 am   BACKBONE|DICT|INTERRES
    85   42  106 1    
    86   43   44 2    
    87   43   45 1    
    88   45   46 1    
    89   45   49 1    
    90   45  107 1    
    91   46   47 1    
    92   46  108 1    
    93   46  109 1    
    94   47   48 1    
    95   48  110 1    
    96   48  111 1    
    97   49   50 am   BACKBONE|DICT|INTERRES
    98   49  112 1    
    99   50   51 2    
   100   50   52 1    
   101   52   53 1    
   102   52   54 1    
   103   52  113 1    
   104   53  114 1    
   105   53  115 1    
   106   53  116 1    
   107   54   55 am   BACKBONE|DICT|INTERRES
   108   54  117 1    
   109   55   56 2    
   110   55   57 1    
   111   57   58 1    
   112   57   59 1    
   113   57  118 1    
   114   58  119 1    
   115   58  120 1    
   116   58  121 1    
   117   59   60 am   BACKBONE|DICT|INTERRES
   118   59  122 1    
   119   60   61 2    
   120   60   62 1    
   121   62   63 1    
   122   62   64 1    
   123   62  123 1    
   124   63  124 1    
   125   63  125 1    
   126   63  126 1    
   127   64   65 am   BACKBONE|DICT|INTERRES
   128   64  127 1    
   129   65   66 2    
@<TRIPOS>SUBSTRUCTURE
     1 UNK         1 GROUP             0       ****    0 ROOT    
