@<TRIPOS>MOLECULE
3R135
127   129    1
SMALL
USER_CHARGES


@<TRIPOS>ATOM
      1 CA        -81.1589   25.8751  -69.4263 C.3       0 UNK        -0.1998 
      2 C         -82.1603   26.6522  -70.2675 C.2       0 UNK         0.4909 
      3 O         -82.9524   27.4202  -69.7210 O.2       0 UNK        -0.5240 
      4 N         -82.1344   26.4545  -71.5893 N.am      1 UNK        -0.4739 
      5 CA        -83.0659   27.0632  -72.5438 C.3       1 UNK         0.0864 
      6 C6        -82.7944   28.5652  -72.8372 C.3       11 UNK        -0.0881 
      7 S7        -81.1104   28.9169  -73.4515 S.3       11 UNK        -0.2682 
      8 C8        -80.3143   29.6068  -71.9683 C.3       11 UNK         0.0289 
      9 C9        -78.8350   29.2674  -71.9707 C.ar      11 UNK        -0.0687 
     10 C10       -78.3828   28.1192  -71.3187 C.ar      11 UNK        -0.0823 
     11 C11       -77.0385   27.7434  -71.3910 C.ar      11 UNK        -0.0830 
     12 C12       -76.1387   28.5597  -72.0844 C.ar      11 UNK        -0.1021 
     13 C13       -76.5696   29.7355  -72.7156 C.ar      11 UNK        -0.0753 
     14 C14       -77.9247   30.0744  -72.6568 C.ar      11 UNK        -0.0933 
     15 C15       -75.6344   30.6555  -73.5030 C.3       11 UNK         0.0166 
     16 S16       -73.8472   30.3303  -73.3154 S.3       11 UNK        -0.2615 
     17 C17       -73.1713   31.6017  -74.4350 C.3       11 UNK        -0.0865 
     18 CA        -72.8617   31.0393  -75.8532 C.3       10 UNK         0.0862 
     19 C         -72.6097   32.1598  -76.9101 C.2       10 UNK         0.5551 
     20 N         -71.8065   31.9248  -77.9409 N.am      10 UNK        -0.7319 
     21 O         -73.1732   33.2480  -76.8184 O.2       10 UNK        -0.5018 
     22 N         -71.8515   29.9617  -75.8470 N.am      10 UNK        -0.4509 
     23 C         -70.5595   30.1005  -75.5124 C.2       10 UNK         0.4899 
     24 O         -70.0701   31.1580  -75.1107 O.2       10 UNK        -0.4839 
     25 CA        -69.6471   28.8706  -75.7026 C.3       9 UNK         0.0222 
     26 CB        -68.2866   29.0156  -74.9863 C.3       9 UNK        -0.1966 
     27 N         -70.2758   27.5911  -75.3587 N.am      9 UNK        -0.4218 
     28 C         -70.7510   27.1938  -74.1703 C.2       9 UNK         0.5020 
     29 O         -70.7552   27.8996  -73.1602 O.2       9 UNK        -0.5274 
     30 CA        -71.2931   25.7479  -74.1073 C.3       8 UNK         0.0270 
     31 CB        -71.8521   25.3863  -72.7181 C.3       8 UNK        -0.1976 
     32 N         -72.3198   25.4892  -75.1234 N.am      8 UNK        -0.4313 
     33 C         -72.0873   25.3075  -76.4336 C.2       8 UNK         0.5041 
     34 O         -70.9528   25.2840  -76.9146 O.2       8 UNK        -0.5577 
     35 CA        -73.2946   25.1810  -77.3844 C.3       7 UNK         0.0284 
     36 CB        -73.5548   23.7044  -77.7222 C.3       7 UNK        -0.1958 
     37 N         -74.5282   25.7818  -76.8744 N.am      7 UNK        -0.4454 
     38 C         -74.6846   27.0610  -76.5082 C.2       7 UNK         0.5089 
     39 O         -73.8270   27.9273  -76.6815 O.2       7 UNK        -0.5125 
     40 CA        -75.9893   27.4218  -75.7725 C.3       6 UNK         0.0408 
     41 CB        -76.9851   28.0956  -76.7261 C.3       6 UNK        -0.1791 
     42 N         -76.6434   26.2919  -75.0971 N.am      6 UNK        -0.4762 
     43 C         -76.0907   25.5473  -74.1244 C.2       6 UNK         0.5007 
     44 O         -74.9345   25.6896  -73.7280 O.2       6 UNK        -0.5032 
     45 CA        -76.9594   24.4176  -73.5442 C.3       5 UNK         0.0783 
     46 C46       -78.0936   24.9664  -72.6400 C.3       11 UNK        -0.0857 
     47 S47       -77.6564   25.0243  -70.8686 S.3       11 UNK        -0.2512 
     48 C48       -76.5335   26.4626  -70.7303 C.3       11 UNK         0.0225 
     49 N         -77.4835   23.6059  -74.6416 N.am      5 UNK        -0.4615 
     50 C         -76.7916   22.6484  -75.2743 C.2       4 UNK         0.5053 
     51 O         -75.6784   22.2629  -74.9191 O.2       4 UNK        -0.5105 
     52 CA        -77.4380   22.0192  -76.5230 C.3       4 UNK         0.0263 
     53 CB        -78.1391   20.7013  -76.1568 C.3       4 UNK        -0.1981 
     54 N         -78.3956   22.9039  -77.1923 N.am      4 UNK        -0.4224 
     55 C         -78.0782   24.0565  -77.8000 C.2       3 UNK         0.4895 
     56 O         -76.9267   24.4693  -77.9245 O.2       3 UNK        -0.5091 
     57 CA        -79.2475   24.9216  -78.3021 C.3       3 UNK         0.0250 
     58 CB        -79.5877   24.5714  -79.7592 C.3       3 UNK        -0.1996 
     59 N         -80.4562   24.8167  -77.4756 N.am      3 UNK        -0.4254 
     60 C         -80.5306   25.1401  -76.1768 C.2       2 UNK         0.5004 
     61 O         -79.5754   25.5532  -75.5115 O.2       2 UNK        -0.5226 
     62 CA        -81.8774   24.8858  -75.4949 C.3       2 UNK         0.0269 
     63 CB        -81.9993   23.4095  -75.0740 C.3       2 UNK        -0.1926 
     64 N         -81.9933   25.7405  -74.3168 N.am      2 UNK        -0.4687 
     65 C         -83.1473   26.2045  -73.8178 C.2       1 UNK         0.5165 
     66 O         -84.2506   25.9444  -74.3008 O.2       1 UNK        -0.5079 
     67 H67       -80.5753   25.1789  -70.0277 H         1 UNK         0.0900 
     68 H68       -81.6791   25.3020  -68.6593 H         1 UNK         0.0900 
     69 H69       -80.4706   26.5591  -68.9308 H         1 UNK         0.0900 
     70 H70       -81.4973   25.7764  -71.9818 H         1 UNK         0.2959 
     71 H71       -84.0611   27.0027  -72.0963 H         1 UNK         0.1079 
     72 H72       -83.5085   28.9379  -73.5739 H         1 UNK         0.0837 
     73 H73       -82.9818   29.1550  -71.9389 H         1 UNK         0.0837 
     74 H74       -80.4610   30.6876  -71.9451 H         1 UNK         0.0685 
     75 H75       -80.7817   29.2111  -71.0658 H         1 UNK         0.0685 
     76 H76       -79.0877   27.4956  -70.7888 H         1 UNK         0.1434 
     77 H77       -75.1025   28.2582  -72.1407 H         1 UNK         0.1329 
     78 H78       -78.2790   30.9614  -73.1644 H         1 UNK         0.1335 
     79 H79       -75.8255   31.6869  -73.2025 H         1 UNK         0.0680 
     80 H80       -75.8915   30.5852  -74.5609 H         1 UNK         0.0680 
     81 H81       -72.2736   32.0242  -73.9823 H         1 UNK         0.1032 
     82 H82       -73.8843   32.4262  -74.4880 H         1 UNK         0.1032 
     83 H83       -73.7778   30.5639  -76.2043 H         1 UNK         0.0461 
     84 H84       -71.6559   32.6482  -78.6263 H         1 UNK         0.3453 
     85 H85       -71.3536   31.0308  -78.0401 H         1 UNK         0.3453 
     86 H86       -72.1980   29.0599  -76.1569 H         1 UNK         0.2984 
     87 H87       -69.4435   28.8191  -76.7730 H         1 UNK         0.0554 
     88 H88       -67.6488   28.1499  -75.1643 H         1 UNK         0.0847 
     89 H89       -68.4079   29.1275  -73.9083 H         1 UNK         0.0847 
     90 H90       -67.7452   29.8922  -75.3445 H         1 UNK         0.0847 
     91 H91       -70.3455   26.9108  -76.1132 H         1 UNK         0.3141 
     92 H92       -70.4481   25.0837  -74.3004 H         1 UNK         0.0743 
     93 H93       -72.6604   26.0562  -72.4224 H         1 UNK         0.0784 
     94 H94       -72.2363   24.3664  -72.6951 H         1 UNK         0.0784 
     95 H95       -71.0762   25.4582  -71.9550 H         1 UNK         0.0784 
     96 H96       -73.2829   25.5395  -74.7997 H         1 UNK         0.3213 
     97 H97       -73.0360   25.7054  -78.3065 H         1 UNK         0.0855 
     98 H98       -73.8485   23.1357  -76.8392 H         1 UNK         0.0814 
     99 H99       -72.6601   23.2332  -78.1315 H         1 UNK         0.0814 
    100 H100      -74.3438   23.5995  -78.4671 H         1 UNK         0.0814 
    101 H101      -75.3351   25.1719  -76.7993 H         1 UNK         0.3105 
    102 H102      -75.7222   28.1410  -74.9981 H         1 UNK         0.0547 
    103 H103      -76.5534   28.9968  -77.1636 H         1 UNK         0.0837 
    104 H104      -77.2603   27.4353  -77.5478 H         1 UNK         0.0837 
    105 H105      -77.8970   28.3914  -76.2066 H         1 UNK         0.0837 
    106 H106      -77.6063   26.1006  -75.3571 H         1 UNK         0.3020 
    107 H107      -76.3087   23.7816  -72.9387 H         1 UNK         0.1245 
    108 H108      -78.4649   25.9351  -72.9780 H         1 UNK         0.0781 
    109 H109      -78.9595   24.3049  -72.6997 H         1 UNK         0.0781 
    110 H110      -76.3620   26.6655  -69.6726 H         1 UNK         0.0836 
    111 H111      -75.5644   26.1780  -71.1423 H         1 UNK         0.0836 
    112 H112      -78.3677   23.9102  -75.0289 H         1 UNK         0.3022 
    113 H113      -76.6351   21.7981  -77.2298 H         1 UNK         0.0747 
    114 H114      -78.5331   20.2013  -77.0419 H         1 UNK         0.0793 
    115 H115      -77.4437   20.0094  -75.6793 H         1 UNK         0.0793 
    116 H116      -78.9662   20.8618  -75.4638 H         1 UNK         0.0793 
    117 H117      -79.3687   22.6396  -77.1484 H         1 UNK         0.3047 
    118 H118      -78.9213   25.9622  -78.2708 H         1 UNK         0.0822 
    119 H119      -80.3484   25.2406  -80.1616 H         1 UNK         0.0807 
    120 H120      -79.9534   23.5484  -79.8560 H         1 UNK         0.0807 
    121 H121      -78.7078   24.6645  -80.3978 H         1 UNK         0.0807 
    122 H122      -81.2856   24.4721  -77.9385 H         1 UNK         0.2946 
    123 H123      -82.6709   25.1339  -76.2042 H         1 UNK         0.1144 
    124 H124      -81.9232   22.7442  -75.9348 H         1 UNK         0.0793 
    125 H125      -82.9610   23.2107  -74.6006 H         1 UNK         0.0793 
    126 H126      -81.2164   23.1256  -74.3693 H         1 UNK         0.0793 
    127 H127      -81.1119   26.0938  -73.9651 H         1 UNK         0.2896 
@<TRIPOS>BOND
     1    1    2 1    
     2    1   67 1    
     3    1   68 1    
     4    1   69 1    
     5    2    3 2    
     6    2    4 am   BACKBONE|DICT|INTERRES
     7    4    5 1    
     8    4   70 1    
     9    5    6 1    
    10    5   65 1    
    11    5   71 1    
    12    6    7 1    
    13    6   72 1    
    14    6   73 1    
    15    7    8 1    
    16    8    9 1    
    17    8   74 1    
    18    8   75 1    
    19    9   10 ar   
    20    9   14 ar   
    21   10   11 ar   
    22   10   76 1    
    23   11   12 ar   
    24   11   48 1    
    25   12   13 ar   
    26   12   77 1    
    27   13   14 ar   
    28   13   15 1    
    29   14   78 1    
    30   15   16 1    
    31   15   79 1    
    32   15   80 1    
    33   16   17 1    
    34   17   18 1    
    35   17   81 1    
    36   17   82 1    
    37   18   19 1    
    38   18   22 1    
    39   18   83 1    
    40   19   20 am   BACKBONE|DICT|INTERRES
    41   19   21 2    
    42   20   84 1    
    43   20   85 1    
    44   22   23 am   BACKBONE|DICT|INTERRES
    45   22   86 1    
    46   23   24 2    
    47   23   25 1    
    48   25   26 1    
    49   25   27 1    
    50   25   87 1    
    51   26   88 1    
    52   26   89 1    
    53   26   90 1    
    54   27   28 am   BACKBONE|DICT|INTERRES
    55   27   91 1    
    56   28   29 2    
    57   28   30 1    
    58   30   31 1    
    59   30   32 1    
    60   30   92 1    
    61   31   93 1    
    62   31   94 1    
    63   31   95 1    
    64   32   33 am   BACKBONE|DICT|INTERRES
    65   32   96 1    
    66   33   34 2    
    67   33   35 1    
    68   35   36 1    
    69   35   37 1    
    70   35   97 1    
    71   36   98 1    
    72   36   99 1    
    73   36  100 1    
    74   37   38 am   BACKBONE|DICT|INTERRES
    75   37  101 1    
    76   38   39 2    
    77   38   40 1    
    78   40   41 1    
    79   40   42 1    
    80   40  102 1    
    81   41  103 1    
    82   41  104 1    
    83   41  105 1    
    84   42   43 am   BACKBONE|DICT|INTERRES
    85   42  106 1    
    86   43   44 2    
    87   43   45 1    
    88   45   46 1    
    89   45   49 1    
    90   45  107 1    
    91   46   47 1    
    92   46  108 1    
    93   46  109 1    
    94   47   48 1    
    95   48  110 1    
    96   48  111 1    
    97   49   50 am   BACKBONE|DICT|INTERRES
    98   49  112 1    
    99   50   51 2    
   100   50   52 1    
   101   52   53 1    
   102   52   54 1    
   103   52  113 1    
   104   53  114 1    
   105   53  115 1    
   106   53  116 1    
   107   54   55 am   BACKBONE|DICT|INTERRES
   108   54  117 1    
   109   55   56 2    
   110   55   57 1    
   111   57   58 1    
   112   57   59 1    
   113   57  118 1    
   114   58  119 1    
   115   58  120 1    
   116   58  121 1    
   117   59   60 am   BACKBONE|DICT|INTERRES
   118   59  122 1    
   119   60   61 2    
   120   60   62 1    
   121   62   63 1    
   122   62   64 1    
   123   62  123 1    
   124   63  124 1    
   125   63  125 1    
   126   63  126 1    
   127   64   65 am   BACKBONE|DICT|INTERRES
   128   64  127 1    
   129   65   66 2    
@<TRIPOS>SUBSTRUCTURE
     1 UNK         1 GROUP             0       ****    0 ROOT    
