@<TRIPOS>MOLECULE
3R135
127   129    1
SMALL
USER_CHARGES


@<TRIPOS>ATOM
      1 CA        -85.9362   27.0957  -72.6461 C.3       0 UNK        -0.1998 
      2 C         -84.6422   26.4915  -73.1701 C.2       0 UNK         0.4909 
      3 O         -84.5654   25.2774  -73.3627 O.2       0 UNK        -0.5240 
      4 N         -83.6269   27.3290  -73.4122 N.am      1 UNK        -0.4739 
      5 CA        -82.2870   26.9220  -73.8421 C.3       1 UNK         0.0864 
      6 C6        -81.4833   28.1039  -74.4532 C.3       11 UNK        -0.0881 
      7 S7        -81.5550   29.6575  -73.4894 S.3       11 UNK        -0.2682 
      8 C8        -80.0217   30.4902  -74.0261 C.3       11 UNK         0.0289 
      9 C9        -78.7123   29.9442  -73.4502 C.ar      11 UNK        -0.0687 
     10 C10       -78.6584   29.0013  -72.4138 C.ar      11 UNK        -0.0823 
     11 C11       -77.4316   28.5491  -71.9162 C.ar      11 UNK        -0.0830 
     12 C12       -76.2459   29.0593  -72.4529 C.ar      11 UNK        -0.1021 
     13 C13       -76.2817   29.9987  -73.4856 C.ar      11 UNK        -0.0753 
     14 C14       -77.5144   30.4361  -73.9754 C.ar      11 UNK        -0.0933 
     15 C15       -74.9946   30.5117  -74.1090 C.3       11 UNK         0.0166 
     16 S16       -74.3437   31.9701  -73.2352 S.3       11 UNK        -0.2615 
     17 C17       -73.2100   31.2193  -72.0128 C.3       11 UNK        -0.0865 
     18 CA        -71.7153   31.3569  -72.4326 C.3       10 UNK         0.0862 
     19 C         -70.7234   30.9823  -71.2879 C.2       10 UNK         0.5551 
     20 N         -69.5406   30.4598  -71.5877 N.am      10 UNK        -0.7319 
     21 O         -71.0109   31.2014  -70.1134 O.2       10 UNK        -0.5018 
     22 N         -71.4384   30.7287  -73.7395 N.am      10 UNK        -0.4509 
     23 C         -71.5040   29.4190  -74.0141 C.2       10 UNK         0.4899 
     24 O         -71.7054   28.5502  -73.1635 O.2       10 UNK        -0.4839 
     25 CA        -71.3869   29.0541  -75.5061 C.3       9 UNK         0.0222 
     26 CB        -70.0362   29.4906  -76.1153 C.3       9 UNK        -0.1966 
     27 N         -71.6746   27.6400  -75.7754 N.am      9 UNK        -0.4218 
     28 C         -70.9260   26.5653  -75.4797 C.2       9 UNK         0.5020 
     29 O         -69.8034   26.6209  -74.9738 O.2       9 UNK        -0.5274 
     30 CA        -71.5125   25.1761  -75.8058 C.3       8 UNK         0.0270 
     31 CB        -71.8532   24.4181  -74.5114 C.3       8 UNK        -0.1976 
     32 N         -72.6959   25.2089  -76.6722 N.am      8 UNK        -0.4313 
     33 C         -72.6810   25.5150  -77.9772 C.2       8 UNK         0.5041 
     34 O         -71.6515   25.7528  -78.6100 O.2       8 UNK        -0.5577 
     35 CA        -74.0381   25.5924  -78.6996 C.3       7 UNK         0.0284 
     36 CB        -74.4184   24.2180  -79.2720 C.3       7 UNK        -0.1958 
     37 N         -75.1305   26.0965  -77.8598 N.am      7 UNK        -0.4454 
     38 C         -75.1879   27.3284  -77.3320 C.2       7 UNK         0.5089 
     39 O         -74.3199   28.1859  -77.4978 O.2       7 UNK        -0.5125 
     40 CA        -76.3876   27.6400  -76.4189 C.3       6 UNK         0.0408 
     41 CB        -77.6597   27.9289  -77.2298 C.3       6 UNK        -0.1791 
     42 N         -76.6472   26.5801  -75.4434 N.am      6 UNK        -0.4762 
     43 C         -75.7754   26.1876  -74.5016 C.2       6 UNK         0.5007 
     44 O         -74.6711   26.7034  -74.3297 O.2       6 UNK        -0.5032 
     45 CA        -76.1764   24.9556  -73.6685 C.3       5 UNK         0.0783 
     46 C46       -77.1600   25.3065  -72.5230 C.3       11 UNK        -0.0857 
     47 S47       -76.3238   26.0949  -71.1080 S.3       11 UNK        -0.2512 
     48 C48       -77.3993   27.5329  -70.7784 C.3       11 UNK         0.0225 
     49 N         -76.7055   23.8979  -74.5341 N.am      5 UNK        -0.4615 
     50 C         -75.9824   23.2143  -75.4328 C.2       4 UNK         0.5053 
     51 O         -74.7726   23.3644  -75.5918 O.2       4 UNK        -0.5105 
     52 CA        -76.7400   22.2209  -76.3312 C.3       4 UNK         0.0263 
     53 CB        -76.8480   20.8502  -75.6448 C.3       4 UNK        -0.1981 
     54 N         -78.0777   22.6914  -76.6968 N.am      4 UNK        -0.4224 
     55 C         -78.3248   23.7701  -77.4549 C.2       3 UNK         0.4895 
     56 O         -77.4486   24.4391  -77.9996 O.2       3 UNK        -0.5091 
     57 CA        -79.7940   24.2145  -77.5698 C.3       3 UNK         0.0250 
     58 CB        -80.4820   23.5101  -78.7494 C.3       3 UNK        -0.1996 
     59 N         -80.5612   23.9855  -76.3391 N.am      3 UNK        -0.4254 
     60 C         -80.2743   24.5488  -75.1577 C.2       2 UNK         0.5004 
     61 O         -79.3564   25.3541  -74.9919 O.2       2 UNK        -0.5226 
     62 CA        -81.1135   24.0823  -73.9575 C.3       2 UNK         0.0269 
     63 CB        -80.6311   22.6952  -73.4982 C.3       2 UNK        -0.1926 
     64 N         -81.0323   24.9926  -72.8098 N.am      2 UNK        -0.4687 
     65 C         -81.5322   26.2314  -72.6762 C.2       1 UNK         0.5165 
     66 O         -81.4169   26.8361  -71.6099 O.2       1 UNK        -0.5079 
     67 H67       -86.7558   26.8791  -73.3307 H         1 UNK         0.0900 
     68 H68       -85.8645   28.1775  -72.5343 H         1 UNK         0.0900 
     69 H69       -86.1819   26.6698  -71.6737 H         1 UNK         0.0900 
     70 H70       -83.7240   28.3141  -73.2072 H         1 UNK         0.2959 
     71 H71       -82.4423   26.2106  -74.6509 H         1 UNK         0.1079 
     72 H72       -80.4410   27.8184  -74.6098 H         1 UNK         0.0837 
     73 H73       -81.8743   28.3251  -75.4475 H         1 UNK         0.0837 
     74 H74       -79.9778   30.4629  -75.1161 H         1 UNK         0.0685 
     75 H75       -80.0995   31.5421  -73.7484 H         1 UNK         0.0685 
     76 H76       -79.5694   28.6180  -71.9795 H         1 UNK         0.1434 
     77 H77       -75.2941   28.7067  -72.0807 H         1 UNK         0.1329 
     78 H78       -77.5405   31.1640  -74.7750 H         1 UNK         0.1335 
     79 H79       -75.1711   30.7848  -75.1505 H         1 UNK         0.0680 
     80 H80       -74.2581   29.7100  -74.1353 H         1 UNK         0.0680 
     81 H81       -73.4690   30.1740  -71.8424 H         1 UNK         0.1032 
     82 H82       -73.3883   31.7268  -71.0633 H         1 UNK         0.1032 
     83 H83       -71.5328   32.4203  -72.5918 H         1 UNK         0.0461 
     84 H84       -69.2965   30.2748  -72.5472 H         1 UNK         0.3453 
     85 H85       -68.8976   30.2299  -70.8466 H         1 UNK         0.3453 
     86 H86       -71.2623   31.3740  -74.4959 H         1 UNK         0.2984 
     87 H87       -72.1756   29.6044  -76.0216 H         1 UNK         0.0554 
     88 H88       -69.9450   29.1635  -77.1512 H         1 UNK         0.0847 
     89 H89       -69.1879   29.0873  -75.5616 H         1 UNK         0.0847 
     90 H90       -69.9325   30.5758  -76.1142 H         1 UNK         0.0847 
     91 H91       -72.5952   27.4643  -76.1595 H         1 UNK         0.3141 
     92 H92       -70.7329   24.6165  -76.3268 H         1 UNK         0.0743 
     93 H93       -72.6465   24.9147  -73.9520 H         1 UNK         0.0784 
     94 H94       -72.1760   23.3983  -74.7212 H         1 UNK         0.0784 
     95 H95       -70.9846   24.3522  -73.8548 H         1 UNK         0.0784 
     96 H96       -73.5789   24.9520  -76.2423 H         1 UNK         0.3213 
     97 H97       -73.9227   26.2873  -79.5342 H         1 UNK         0.0855 
     98 H98       -74.5650   23.4810  -78.4823 H         1 UNK         0.0814 
     99 H99       -73.6362   23.8392  -79.9312 H         1 UNK         0.0814 
    100 H100      -75.3370   24.2709  -79.8567 H         1 UNK         0.0814 
    101 H101      -75.9217   25.4711  -77.7180 H         1 UNK         0.3105 
    102 H102      -76.1420   28.5419  -75.8597 H         1 UNK         0.0547 
    103 H103      -77.4973   28.7528  -77.9256 H         1 UNK         0.0837 
    104 H104      -77.9749   27.0657  -77.8154 H         1 UNK         0.0837 
    105 H105      -78.4867   28.2127  -76.5783 H         1 UNK         0.0837 
    106 H106      -77.5481   26.1132  -75.4889 H         1 UNK         0.3020 
    107 H107      -75.2603   24.5623  -73.2206 H         1 UNK         0.1245 
    108 H108      -77.9771   25.9366  -72.8780 H         1 UNK         0.0781 
    109 H109      -77.6299   24.3984  -72.1427 H         1 UNK         0.0781 
    110 H110      -78.4038   27.1702  -70.5528 H         1 UNK         0.0836 
    111 H111      -77.0453   28.0338  -69.8765 H         1 UNK         0.0836 
    112 H112      -77.7070   23.7769  -74.5233 H         1 UNK         0.3022 
    113 H113      -76.1643   22.0979  -77.2507 H         1 UNK         0.0747 
    114 H114      -77.3119   20.1133  -76.3008 H         1 UNK         0.0793 
    115 H115      -75.8605   20.4690  -75.3803 H         1 UNK         0.0793 
    116 H116      -77.4345   20.9003  -74.7265 H         1 UNK         0.0793 
    117 H117      -78.8617   22.1899  -76.3067 H         1 UNK         0.3047 
    118 H118      -79.7954   25.2889  -77.7654 H         1 UNK         0.0822 
    119 H119      -81.4959   23.8822  -78.8975 H         1 UNK         0.0807 
    120 H120      -80.5375   22.4307  -78.6023 H         1 UNK         0.0807 
    121 H121      -79.9367   23.6845  -79.6783 H         1 UNK         0.0807 
    122 H122      -81.3286   23.3308  -76.4008 H         1 UNK         0.2946 
    123 H123      -82.1585   23.9969  -74.2636 H         1 UNK         0.1144 
    124 H124      -80.7142   21.9579  -74.2977 H         1 UNK         0.0793 
    125 H125      -81.2296   22.3251  -72.6651 H         1 UNK         0.0793 
    126 H126      -79.5888   22.7125  -73.1766 H         1 UNK         0.0793 
    127 H127      -80.5369   24.6213  -72.0138 H         1 UNK         0.2896 
@<TRIPOS>BOND
     1    1    2 1    
     2    1   67 1    
     3    1   68 1    
     4    1   69 1    
     5    2    3 2    
     6    2    4 am   BACKBONE|DICT|INTERRES
     7    4    5 1    
     8    4   70 1    
     9    5    6 1    
    10    5   65 1    
    11    5   71 1    
    12    6    7 1    
    13    6   72 1    
    14    6   73 1    
    15    7    8 1    
    16    8    9 1    
    17    8   74 1    
    18    8   75 1    
    19    9   10 ar   
    20    9   14 ar   
    21   10   11 ar   
    22   10   76 1    
    23   11   12 ar   
    24   11   48 1    
    25   12   13 ar   
    26   12   77 1    
    27   13   14 ar   
    28   13   15 1    
    29   14   78 1    
    30   15   16 1    
    31   15   79 1    
    32   15   80 1    
    33   16   17 1    
    34   17   18 1    
    35   17   81 1    
    36   17   82 1    
    37   18   19 1    
    38   18   22 1    
    39   18   83 1    
    40   19   20 am   BACKBONE|DICT|INTERRES
    41   19   21 2    
    42   20   84 1    
    43   20   85 1    
    44   22   23 am   BACKBONE|DICT|INTERRES
    45   22   86 1    
    46   23   24 2    
    47   23   25 1    
    48   25   26 1    
    49   25   27 1    
    50   25   87 1    
    51   26   88 1    
    52   26   89 1    
    53   26   90 1    
    54   27   28 am   BACKBONE|DICT|INTERRES
    55   27   91 1    
    56   28   29 2    
    57   28   30 1    
    58   30   31 1    
    59   30   32 1    
    60   30   92 1    
    61   31   93 1    
    62   31   94 1    
    63   31   95 1    
    64   32   33 am   BACKBONE|DICT|INTERRES
    65   32   96 1    
    66   33   34 2    
    67   33   35 1    
    68   35   36 1    
    69   35   37 1    
    70   35   97 1    
    71   36   98 1    
    72   36   99 1    
    73   36  100 1    
    74   37   38 am   BACKBONE|DICT|INTERRES
    75   37  101 1    
    76   38   39 2    
    77   38   40 1    
    78   40   41 1    
    79   40   42 1    
    80   40  102 1    
    81   41  103 1    
    82   41  104 1    
    83   41  105 1    
    84   42   43 am   BACKBONE|DICT|INTERRES
    85   42  106 1    
    86   43   44 2    
    87   43   45 1    
    88   45   46 1    
    89   45   49 1    
    90   45  107 1    
    91   46   47 1    
    92   46  108 1    
    93   46  109 1    
    94   47   48 1    
    95   48  110 1    
    96   48  111 1    
    97   49   50 am   BACKBONE|DICT|INTERRES
    98   49  112 1    
    99   50   51 2    
   100   50   52 1    
   101   52   53 1    
   102   52   54 1    
   103   52  113 1    
   104   53  114 1    
   105   53  115 1    
   106   53  116 1    
   107   54   55 am   BACKBONE|DICT|INTERRES
   108   54  117 1    
   109   55   56 2    
   110   55   57 1    
   111   57   58 1    
   112   57   59 1    
   113   57  118 1    
   114   58  119 1    
   115   58  120 1    
   116   58  121 1    
   117   59   60 am   BACKBONE|DICT|INTERRES
   118   59  122 1    
   119   60   61 2    
   120   60   62 1    
   121   62   63 1    
   122   62   64 1    
   123   62  123 1    
   124   63  124 1    
   125   63  125 1    
   126   63  126 1    
   127   64   65 am   BACKBONE|DICT|INTERRES
   128   64  127 1    
   129   65   66 2    
@<TRIPOS>SUBSTRUCTURE
     1 UNK         1 GROUP             0       ****    0 ROOT    
