@<TRIPOS>MOLECULE
3R135
127   129    1
SMALL
USER_CHARGES


@<TRIPOS>ATOM
      1 CA        -79.5139   31.3658  -76.4543 C.3       0 UNK        -0.1998 
      2 C         -79.3073   30.3743  -75.3195 C.2       0 UNK         0.4909 
      3 O         -78.1826   30.2282  -74.8412 O.2       0 UNK        -0.5240 
      4 N         -80.3827   29.6995  -74.9025 N.am      1 UNK        -0.4739 
      5 CA        -80.4063   28.6396  -73.8898 C.3       1 UNK         0.0864 
      6 C6        -81.1107   29.0938  -72.5854 C.3       11 UNK        -0.0881 
      7 S7        -80.2508   30.4807  -71.7677 S.3       11 UNK        -0.2682 
      8 C8        -79.7348   29.7446  -70.1848 C.3       11 UNK         0.0289 
      9 C9        -78.5738   28.7696  -70.3336 C.ar      11 UNK        -0.0687 
     10 C10       -78.7630   27.4020  -70.1038 C.ar      11 UNK        -0.0823 
     11 C11       -77.6836   26.5127  -70.1554 C.ar      11 UNK        -0.0830 
     12 C12       -76.4088   27.0085  -70.4497 C.ar      11 UNK        -0.1021 
     13 C13       -76.2081   28.3675  -70.6951 C.ar      11 UNK        -0.0753 
     14 C14       -77.2935   29.2458  -70.6360 C.ar      11 UNK        -0.0933 
     15 C15       -74.8058   28.8720  -70.9911 C.3       11 UNK         0.0166 
     16 S16       -74.4238   28.7496  -72.7622 S.3       11 UNK        -0.2615 
     17 C17       -74.8880   30.4196  -73.3222 C.3       11 UNK        -0.0865 
     18 CA        -74.6094   30.6736  -74.8272 C.3       10 UNK         0.0862 
     19 C         -75.0197   32.1276  -75.1932 C.2       10 UNK         0.5551 
     20 N         -76.3103   32.3675  -75.3705 N.am      10 UNK        -0.7319 
     21 O         -74.1994   33.0422  -75.2554 O.2       10 UNK        -0.5018 
     22 N         -73.2293   30.3123  -75.1943 N.am      10 UNK        -0.4509 
     23 C         -72.6714   30.4009  -76.4085 C.2       10 UNK         0.4899 
     24 O         -73.2398   30.8548  -77.4024 O.2       10 UNK        -0.4839 
     25 CA        -71.2365   29.8603  -76.5610 C.3       9 UNK         0.0222 
     26 CB        -70.1948   30.8335  -75.9737 C.3       9 UNK        -0.1966 
     27 N         -71.0674   28.4884  -76.0596 N.am      9 UNK        -0.4218 
     28 C         -71.1037   28.0332  -74.7994 C.2       9 UNK         0.5020 
     29 O         -71.1880   28.7684  -73.8143 O.2       9 UNK        -0.5274 
     30 CA        -71.0718   26.4986  -74.6197 C.3       8 UNK         0.0270 
     31 CB        -71.2617   26.0720  -73.1519 C.3       8 UNK        -0.1976 
     32 N         -72.0895   25.8293  -75.4381 N.am      8 UNK        -0.4313 
     33 C         -71.9978   25.6035  -76.7582 C.2       8 UNK         0.5041 
     34 O         -70.9998   25.8901  -77.4212 O.2       8 UNK        -0.5577 
     35 CA        -73.2325   25.0260  -77.4772 C.3       7 UNK         0.0284 
     36 CB        -73.1318   23.4963  -77.5817 C.3       7 UNK        -0.1958 
     37 N         -74.4939   25.3800  -76.8265 N.am      7 UNK        -0.4454 
     38 C         -74.9520   26.6260  -76.6412 C.2       7 UNK         0.5089 
     39 O         -74.4343   27.6195  -77.1485 O.2       7 UNK        -0.5125 
     40 CA        -76.1758   26.8018  -75.7227 C.3       6 UNK         0.0408 
     41 CB        -77.3878   27.2822  -76.5365 C.3       6 UNK        -0.1791 
     42 N         -76.5613   25.6009  -74.9745 N.am      6 UNK        -0.4762 
     43 C         -75.8358   24.9261  -74.0691 C.2       6 UNK         0.5007 
     44 O         -74.6809   25.2185  -73.7565 O.2       6 UNK        -0.5032 
     45 CA        -76.4932   23.6526  -73.5022 C.3       5 UNK         0.0783 
     46 C46       -77.5273   23.9654  -72.3892 C.3       11 UNK        -0.0857 
     47 S47       -76.8075   23.8876  -70.7222 S.3       11 UNK        -0.2512 
     48 C48       -77.9029   25.0378  -69.8213 C.3       11 UNK         0.0225 
     49 N         -77.1226   22.8885  -74.5808 N.am      5 UNK        -0.4615 
     50 C         -76.5161   21.9741  -75.3447 C.2       4 UNK         0.5053 
     51 O         -75.3268   21.6769  -75.2373 O.2       4 UNK        -0.5105 
     52 CA        -77.3826   21.2496  -76.3921 C.3       4 UNK         0.0263 
     53 CB        -77.7993   19.8649  -75.8698 C.3       4 UNK        -0.1981 
     54 N         -78.5865   21.9987  -76.7693 N.am      4 UNK        -0.4224 
     55 C         -78.5910   23.0264  -77.6285 C.2       3 UNK         0.4895 
     56 O         -77.5874   23.4325  -78.2153 O.2       3 UNK        -0.5091 
     57 CA        -79.9382   23.7395  -77.8582 C.3       3 UNK         0.0250 
     58 CB        -80.7680   22.9890  -78.9128 C.3       3 UNK        -0.1996 
     59 N         -80.7629   23.9712  -76.6602 N.am      3 UNK        -0.4254 
     60 C         -80.3410   24.5626  -75.5344 C.2       2 UNK         0.5004 
     61 O         -79.1586   24.7928  -75.2860 O.2       2 UNK        -0.5226 
     62 CA        -81.3925   24.9724  -74.4928 C.3       2 UNK         0.0269 
     63 CB        -81.5157   23.9070  -73.3926 C.3       2 UNK        -0.1926 
     64 N         -80.9897   26.2491  -73.8913 N.am      2 UNK        -0.4687 
     65 C         -81.1305   27.4284  -74.5109 C.2       1 UNK         0.5165 
     66 O         -81.8040   27.5727  -75.5370 O.2       1 UNK        -0.5079 
     67 H67       -79.3415   32.3818  -76.1004 H         1 UNK         0.0900 
     68 H68       -80.5236   31.3151  -76.8615 H         1 UNK         0.0900 
     69 H69       -78.8129   31.1619  -77.2634 H         1 UNK         0.0900 
     70 H70       -81.2597   29.8093  -75.3942 H         1 UNK         0.2959 
     71 H71       -79.3858   28.3259  -73.6547 H         1 UNK         0.1079 
     72 H72       -81.1918   28.2632  -71.8821 H         1 UNK         0.0837 
     73 H73       -82.1344   29.4103  -72.7944 H         1 UNK         0.0837 
     74 H74       -79.4317   30.5493  -69.5134 H         1 UNK         0.0685 
     75 H75       -80.5930   29.2659  -69.7104 H         1 UNK         0.0685 
     76 H76       -79.7480   27.0341  -69.8501 H         1 UNK         0.1434 
     77 H77       -75.5589   26.3409  -70.4799 H         1 UNK         0.1329 
     78 H78       -77.1422   30.3023  -70.8097 H         1 UNK         0.1335 
     79 H79       -74.6825   29.8982  -70.6419 H         1 UNK         0.0680 
     80 H80       -74.0769   28.2770  -70.4386 H         1 UNK         0.0680 
     81 H81       -75.9492   30.5617  -73.1071 H         1 UNK         0.1032 
     82 H82       -74.3484   31.1471  -72.7126 H         1 UNK         0.1032 
     83 H83       -75.2511   30.0048  -75.4044 H         1 UNK         0.0461 
     84 H84       -76.9885   31.6198  -75.2451 H         1 UNK         0.3453 
     85 H85       -76.6157   33.3029  -75.5855 H         1 UNK         0.3453 
     86 H86       -72.6716   29.8927  -74.4566 H         1 UNK         0.2984 
     87 H87       -71.0415   29.7939  -77.6326 H         1 UNK         0.0554 
     88 H88       -69.1792   30.4710  -76.1319 H         1 UNK         0.0847 
     89 H89       -70.3326   30.9899  -74.9037 H         1 UNK         0.0847 
     90 H90       -70.2687   31.8112  -76.4517 H         1 UNK         0.0847 
     91 H91       -71.0115   27.7720  -76.7790 H         1 UNK         0.3141 
     92 H92       -70.0844   26.1589  -74.9392 H         1 UNK         0.0743 
     93 H93       -72.2299   26.3921  -72.7634 H         1 UNK         0.0784 
     94 H94       -71.1987   24.9894  -73.0411 H         1 UNK         0.0784 
     95 H95       -70.4925   26.5081  -72.5133 H         1 UNK         0.0784 
     96 H96       -72.9638   25.6111  -74.9697 H         1 UNK         0.3213 
     97 H97       -73.2515   25.4431  -78.4863 H         1 UNK         0.0855 
     98 H98       -73.1253   23.0236  -76.5984 H         1 UNK         0.0814 
     99 H99       -72.2146   23.1999  -78.0927 H         1 UNK         0.0814 
    100 H100      -73.9662   23.0805  -78.1473 H         1 UNK         0.0814 
    101 H101      -75.0065   24.6298  -76.3865 H         1 UNK         0.3105 
    102 H102      -75.9270   27.5740  -74.9943 H         1 UNK         0.0547 
    103 H103      -77.6874   26.5461  -77.2837 H         1 UNK         0.0837 
    104 H104      -78.2456   27.4729  -75.8927 H         1 UNK         0.0837 
    105 H105      -77.1650   28.2135  -77.0591 H         1 UNK         0.0837 
    106 H106      -77.5091   25.2656  -75.1537 H         1 UNK         0.3020 
    107 H107      -75.6944   23.0380  -73.0795 H         1 UNK         0.1245 
    108 H108      -78.0208   24.9265  -72.5498 H         1 UNK         0.0781 
    109 H109      -78.3258   23.2222  -72.3962 H         1 UNK         0.0781 
    110 H110      -78.9392   24.7522  -70.0096 H         1 UNK         0.0836 
    111 H111      -77.7369   24.9035  -68.7517 H         1 UNK         0.0836 
    112 H112      -78.0737   23.1533  -74.8070 H         1 UNK         0.3022 
    113 H113      -76.7660   21.1043  -77.2820 H         1 UNK         0.0747 
    114 H114      -78.3555   19.3073  -76.6236 H         1 UNK         0.0793 
    115 H115      -76.9248   19.2674  -75.6076 H         1 UNK         0.0793 
    116 H116      -78.4223   19.9392  -74.9775 H         1 UNK         0.0793 
    117 H117      -79.4563   21.7291  -76.3326 H         1 UNK         0.3047 
    118 H118      -79.7005   24.7258  -78.2626 H         1 UNK         0.0822 
    119 H119      -81.6524   23.5573  -79.2015 H         1 UNK         0.0807 
    120 H120      -81.0978   22.0148  -78.5497 H         1 UNK         0.0807 
    121 H121      -80.1866   22.8188  -79.8203 H         1 UNK         0.0807 
    122 H122      -81.7513   23.7901  -76.7641 H         1 UNK         0.2946 
    123 H123      -82.3614   25.0893  -74.9841 H         1 UNK         0.1144 
    124 H124      -82.2744   24.1831  -72.6601 H         1 UNK         0.0793 
    125 H125      -80.5765   23.7616  -72.8598 H         1 UNK         0.0793 
    126 H126      -81.8070   22.9429  -73.8114 H         1 UNK         0.0793 
    127 H127      -80.4038   26.1923  -73.0716 H         1 UNK         0.2896 
@<TRIPOS>BOND
     1    1    2 1    
     2    1   67 1    
     3    1   68 1    
     4    1   69 1    
     5    2    3 2    
     6    2    4 am   BACKBONE|DICT|INTERRES
     7    4    5 1    
     8    4   70 1    
     9    5    6 1    
    10    5   65 1    
    11    5   71 1    
    12    6    7 1    
    13    6   72 1    
    14    6   73 1    
    15    7    8 1    
    16    8    9 1    
    17    8   74 1    
    18    8   75 1    
    19    9   10 ar   
    20    9   14 ar   
    21   10   11 ar   
    22   10   76 1    
    23   11   12 ar   
    24   11   48 1    
    25   12   13 ar   
    26   12   77 1    
    27   13   14 ar   
    28   13   15 1    
    29   14   78 1    
    30   15   16 1    
    31   15   79 1    
    32   15   80 1    
    33   16   17 1    
    34   17   18 1    
    35   17   81 1    
    36   17   82 1    
    37   18   19 1    
    38   18   22 1    
    39   18   83 1    
    40   19   20 am   BACKBONE|DICT|INTERRES
    41   19   21 2    
    42   20   84 1    
    43   20   85 1    
    44   22   23 am   BACKBONE|DICT|INTERRES
    45   22   86 1    
    46   23   24 2    
    47   23   25 1    
    48   25   26 1    
    49   25   27 1    
    50   25   87 1    
    51   26   88 1    
    52   26   89 1    
    53   26   90 1    
    54   27   28 am   BACKBONE|DICT|INTERRES
    55   27   91 1    
    56   28   29 2    
    57   28   30 1    
    58   30   31 1    
    59   30   32 1    
    60   30   92 1    
    61   31   93 1    
    62   31   94 1    
    63   31   95 1    
    64   32   33 am   BACKBONE|DICT|INTERRES
    65   32   96 1    
    66   33   34 2    
    67   33   35 1    
    68   35   36 1    
    69   35   37 1    
    70   35   97 1    
    71   36   98 1    
    72   36   99 1    
    73   36  100 1    
    74   37   38 am   BACKBONE|DICT|INTERRES
    75   37  101 1    
    76   38   39 2    
    77   38   40 1    
    78   40   41 1    
    79   40   42 1    
    80   40  102 1    
    81   41  103 1    
    82   41  104 1    
    83   41  105 1    
    84   42   43 am   BACKBONE|DICT|INTERRES
    85   42  106 1    
    86   43   44 2    
    87   43   45 1    
    88   45   46 1    
    89   45   49 1    
    90   45  107 1    
    91   46   47 1    
    92   46  108 1    
    93   46  109 1    
    94   47   48 1    
    95   48  110 1    
    96   48  111 1    
    97   49   50 am   BACKBONE|DICT|INTERRES
    98   49  112 1    
    99   50   51 2    
   100   50   52 1    
   101   52   53 1    
   102   52   54 1    
   103   52  113 1    
   104   53  114 1    
   105   53  115 1    
   106   53  116 1    
   107   54   55 am   BACKBONE|DICT|INTERRES
   108   54  117 1    
   109   55   56 2    
   110   55   57 1    
   111   57   58 1    
   112   57   59 1    
   113   57  118 1    
   114   58  119 1    
   115   58  120 1    
   116   58  121 1    
   117   59   60 am   BACKBONE|DICT|INTERRES
   118   59  122 1    
   119   60   61 2    
   120   60   62 1    
   121   62   63 1    
   122   62   64 1    
   123   62  123 1    
   124   63  124 1    
   125   63  125 1    
   126   63  126 1    
   127   64   65 am   BACKBONE|DICT|INTERRES
   128   64  127 1    
   129   65   66 2    
@<TRIPOS>SUBSTRUCTURE
     1 UNK         1 GROUP             0       ****    0 ROOT    
