@<TRIPOS>MOLECULE
3R135
127   129    1
SMALL
USER_CHARGES


@<TRIPOS>ATOM
      1 CA        -82.5927   21.6372  -71.7633 C.3       0 UNK        -0.1998 
      2 C         -81.1579   22.0507  -71.4431 C.2       0 UNK         0.4909 
      3 O         -80.3366   21.1880  -71.1352 O.2       0 UNK        -0.5240 
      4 N         -80.8069   23.3440  -71.4785 N.am      1 UNK        -0.4739 
      5 CA        -81.6327   24.4871  -71.8899 C.3       1 UNK         0.0864 
      6 C6        -81.1294   25.7992  -71.2307 C.3       11 UNK        -0.0881 
      7 S7        -79.4427   26.3040  -71.7167 S.3       11 UNK        -0.2682 
      8 C8        -79.2195   27.7533  -70.6374 C.3       11 UNK         0.0289 
      9 C9        -78.2866   28.7724  -71.2709 C.ar      11 UNK        -0.0687 
     10 C10       -78.7073   29.4765  -72.4018 C.ar      11 UNK        -0.0823 
     11 C11       -77.8703   30.4165  -73.0063 C.ar      11 UNK        -0.0830 
     12 C12       -76.6102   30.6686  -72.4580 C.ar      11 UNK        -0.1021 
     13 C13       -76.1826   29.9812  -71.3180 C.ar      11 UNK        -0.0753 
     14 C14       -77.0219   29.0280  -70.7303 C.ar      11 UNK        -0.0933 
     15 C15       -74.8142   30.2778  -70.7271 C.3       11 UNK         0.0166 
     16 S16       -73.5657   29.1353  -71.3852 S.3       11 UNK        -0.2615 
     17 C17       -72.0417   30.1222  -71.1904 C.3       11 UNK        -0.0865 
     18 CA        -71.6614   30.8831  -72.4893 C.3       10 UNK         0.0862 
     19 C         -70.4258   31.8016  -72.2632 C.2       10 UNK         0.5551 
     20 N         -69.3214   31.6218  -72.9773 N.am      10 UNK        -0.7319 
     21 O         -70.4749   32.7003  -71.4270 O.2       10 UNK        -0.5018 
     22 N         -71.5403   29.9640  -73.6316 N.am      10 UNK        -0.4509 
     23 C         -71.7141   30.2801  -74.9182 C.2       10 UNK         0.4899 
     24 O         -71.9514   31.4220  -75.3124 O.2       10 UNK        -0.4839 
     25 CA        -71.6340   29.1366  -75.9495 C.3       9 UNK         0.0222 
     26 CB        -70.2247   29.0372  -76.5650 C.3       9 UNK        -0.1966 
     27 N         -72.1103   27.8290  -75.4674 N.am      9 UNK        -0.4218 
     28 C         -71.5669   27.0189  -74.5450 C.2       9 UNK         0.5020 
     29 O         -70.5366   27.2831  -73.9239 O.2       9 UNK        -0.5274 
     30 CA        -72.3072   25.7114  -74.2221 C.3       8 UNK         0.0270 
     31 CB        -73.2562   25.9120  -73.0307 C.3       8 UNK        -0.1976 
     32 N         -73.0615   25.1732  -75.3546 N.am      8 UNK        -0.4313 
     33 C         -72.5103   24.5359  -76.3965 C.2       8 UNK         0.5041 
     34 O         -71.2996   24.3489  -76.5252 O.2       8 UNK        -0.5577 
     35 CA        -73.4727   24.0103  -77.4736 C.3       7 UNK         0.0284 
     36 CB        -74.1899   22.7372  -76.9950 C.3       7 UNK        -0.1958 
     37 N         -74.4581   25.0166  -77.8695 N.am      7 UNK        -0.4454 
     38 C         -74.1806   26.0832  -78.6316 C.2       7 UNK         0.5089 
     39 O         -73.0751   26.3083  -79.1239 O.2       7 UNK        -0.5125 
     40 CA        -75.3301   27.0722  -78.8856 C.3       6 UNK         0.0408 
     41 CB        -76.1008   26.6890  -80.1585 C.3       6 UNK        -0.1791 
     42 N         -76.2632   27.1669  -77.7611 N.am      6 UNK        -0.4762 
     43 C         -75.9680   27.7275  -76.5780 C.2       6 UNK         0.5007 
     44 O         -74.8622   28.1919  -76.3009 O.2       6 UNK        -0.5032 
     45 CA        -77.0861   27.7163  -75.5117 C.3       5 UNK         0.0783 
     46 C46       -78.1643   28.7890  -75.8184 C.3       11 UNK        -0.0857 
     47 S47       -77.5366   30.5052  -75.7543 S.3       11 UNK        -0.2512 
     48 C48       -78.3288   31.1578  -74.2519 C.3       11 UNK         0.0225 
     49 N         -77.6919   26.3846  -75.3806 N.am      5 UNK        -0.4615 
     50 C         -77.0226   25.2447  -75.1382 C.2       4 UNK         0.5053 
     51 O         -75.8215   25.2039  -74.8785 O.2       4 UNK        -0.5105 
     52 CA        -77.7810   23.9110  -75.2791 C.3       4 UNK         0.0263 
     53 CB        -78.0916   23.3145  -73.9001 C.3       4 UNK        -0.1981 
     54 N         -79.0072   24.0102  -76.0759 N.am      4 UNK        -0.4224 
     55 C         -79.0345   24.3453  -77.3767 C.2       3 UNK         0.4895 
     56 O         -78.0181   24.5247  -78.0499 O.2       3 UNK        -0.5091 
     57 CA        -80.4070   24.5729  -78.0374 C.3       3 UNK         0.0250 
     58 CB        -80.7831   23.3686  -78.9150 C.3       3 UNK        -0.1996 
     59 N         -81.5027   24.8466  -77.1017 N.am      3 UNK        -0.4254 
     60 C         -81.5657   25.8671  -76.2332 C.2       2 UNK         0.5004 
     61 O         -80.6832   26.7183  -76.1129 O.2       2 UNK        -0.5226 
     62 CA        -82.7979   25.9234  -75.3063 C.3       2 UNK         0.0269 
     63 CB        -83.9653   25.0153  -75.7573 C.3       2 UNK        -0.1926 
     64 N         -82.4613   25.6397  -73.9032 N.am      2 UNK        -0.4687 
     65 C         -81.7818   24.5822  -73.4301 C.2       1 UNK         0.5165 
     66 O         -81.3094   23.7011  -74.1551 O.2       1 UNK        -0.5079 
     67 H67       -83.2987   22.1121  -71.0824 H         1 UNK         0.0900 
     68 H68       -82.7098   20.5586  -71.6571 H         1 UNK         0.0900 
     69 H69       -82.8575   21.8965  -72.7878 H         1 UNK         0.0900 
     70 H70       -79.8459   23.5808  -71.2783 H         1 UNK         0.2959 
     71 H71       -82.6427   24.3231  -71.5095 H         1 UNK         0.1079 
     72 H72       -81.8139   26.6246  -71.4373 H         1 UNK         0.0837 
     73 H73       -81.1450   25.6809  -70.1452 H         1 UNK         0.0837 
     74 H74       -80.1820   28.2326  -70.4500 H         1 UNK         0.0685 
     75 H75       -78.8434   27.4233  -69.6673 H         1 UNK         0.0685 
     76 H76       -79.6856   29.2770  -72.8178 H         1 UNK         0.1434 
     77 H77       -75.9592   31.3956  -72.9248 H         1 UNK         0.1329 
     78 H78       -76.6895   28.4892  -69.8534 H         1 UNK         0.1335 
     79 H79       -74.5307   31.3066  -70.9556 H         1 UNK         0.0680 
     80 H80       -74.8422   30.1983  -69.6393 H         1 UNK         0.0680 
     81 H81       -71.2352   29.4465  -70.9001 H         1 UNK         0.1032 
     82 H82       -72.1675   30.8137  -70.3547 H         1 UNK         0.1032 
     83 H83       -72.4868   31.5619  -72.7126 H         1 UNK         0.0461 
     84 H84       -68.5283   32.2249  -72.8257 H         1 UNK         0.3453 
     85 H85       -69.2771   30.8873  -73.6652 H         1 UNK         0.3453 
     86 H86       -71.2859   29.0057  -73.4167 H         1 UNK         0.2984 
     87 H87       -72.3194   29.4058  -76.7548 H         1 UNK         0.0554 
     88 H88       -70.1866   28.2754  -77.3437 H         1 UNK         0.0847 
     89 H89       -69.4671   28.7937  -75.8199 H         1 UNK         0.0847 
     90 H90       -69.9340   29.9836  -77.0228 H         1 UNK         0.0847 
     91 H91       -73.0229   27.5714  -75.8326 H         1 UNK         0.3141 
     92 H92       -71.5562   24.9733  -73.9319 H         1 UNK         0.0743 
     93 H93       -74.0302   26.6489  -73.2515 H         1 UNK         0.0784 
     94 H94       -73.7517   24.9808  -72.7554 H         1 UNK         0.0784 
     95 H95       -72.7116   26.2613  -72.1525 H         1 UNK         0.0784 
     96 H96       -74.0777   25.2449  -75.2963 H         1 UNK         0.3213 
     97 H97       -72.8801   23.7503  -78.3539 H         1 UNK         0.0855 
     98 H98       -74.7619   22.9090  -76.0833 H         1 UNK         0.0814 
     99 H99       -73.4696   21.9473  -76.7786 H         1 UNK         0.0814 
    100 H100      -74.8720   22.3542  -77.7541 H         1 UNK         0.0814 
    101 H101      -75.3985   24.9168  -77.5136 H         1 UNK         0.3105 
    102 H102      -74.8890   28.0591  -79.0408 H         1 UNK         0.0547 
    103 H103      -75.4328   26.6469  -81.0199 H         1 UNK         0.0837 
    104 H104      -76.5743   25.7108  -80.0669 H         1 UNK         0.0837 
    105 H105      -76.8776   27.4183  -80.3880 H         1 UNK         0.0837 
    106 H106      -77.1696   26.7349  -77.8848 H         1 UNK         0.3020 
    107 H107      -76.6253   27.9531  -74.5495 H         1 UNK         0.1245 
    108 H108      -78.6019   28.6237  -76.8047 H         1 UNK         0.0781 
    109 H109      -78.9946   28.6893  -75.1188 H         1 UNK         0.0781 
    110 H110      -79.4132   31.1046  -74.3618 H         1 UNK         0.0836 
    111 H111      -78.0848   32.2167  -74.1546 H         1 UNK         0.0836 
    112 H112      -78.6857   26.3307  -75.5781 H         1 UNK         0.3022 
    113 H113      -77.1185   23.2169  -75.7991 H         1 UNK         0.0747 
    114 H114      -78.6040   22.3558  -73.9832 H         1 UNK         0.0793 
    115 H115      -77.1757   23.1480  -73.3311 H         1 UNK         0.0793 
    116 H116      -78.7205   23.9810  -73.3135 H         1 UNK         0.0793 
    117 H117      -79.8845   23.8891  -75.5771 H         1 UNK         0.3047 
    118 H118      -80.3062   25.4485  -78.6823 H         1 UNK         0.0822 
    119 H119      -81.7011   23.5538  -79.4732 H         1 UNK         0.0807 
    120 H120      -80.9257   22.4653  -78.3202 H         1 UNK         0.0807 
    121 H121      -80.0003   23.1574  -79.6455 H         1 UNK         0.0807 
    122 H122      -82.2598   24.1788  -77.0928 H         1 UNK         0.2946 
    123 H123      -83.1492   26.9562  -75.3450 H         1 UNK         0.1144 
    124 H124      -84.2566   25.2253  -76.7878 H         1 UNK         0.0793 
    125 H125      -84.8481   25.1841  -75.1403 H         1 UNK         0.0793 
    126 H126      -83.7181   23.9553  -75.6868 H         1 UNK         0.0793 
    127 H127      -82.7793   26.3333  -73.2410 H         1 UNK         0.2896 
@<TRIPOS>BOND
     1    1    2 1    
     2    1   67 1    
     3    1   68 1    
     4    1   69 1    
     5    2    3 2    
     6    2    4 am   BACKBONE|DICT|INTERRES
     7    4    5 1    
     8    4   70 1    
     9    5    6 1    
    10    5   65 1    
    11    5   71 1    
    12    6    7 1    
    13    6   72 1    
    14    6   73 1    
    15    7    8 1    
    16    8    9 1    
    17    8   74 1    
    18    8   75 1    
    19    9   10 ar   
    20    9   14 ar   
    21   10   11 ar   
    22   10   76 1    
    23   11   12 ar   
    24   11   48 1    
    25   12   13 ar   
    26   12   77 1    
    27   13   14 ar   
    28   13   15 1    
    29   14   78 1    
    30   15   16 1    
    31   15   79 1    
    32   15   80 1    
    33   16   17 1    
    34   17   18 1    
    35   17   81 1    
    36   17   82 1    
    37   18   19 1    
    38   18   22 1    
    39   18   83 1    
    40   19   20 am   BACKBONE|DICT|INTERRES
    41   19   21 2    
    42   20   84 1    
    43   20   85 1    
    44   22   23 am   BACKBONE|DICT|INTERRES
    45   22   86 1    
    46   23   24 2    
    47   23   25 1    
    48   25   26 1    
    49   25   27 1    
    50   25   87 1    
    51   26   88 1    
    52   26   89 1    
    53   26   90 1    
    54   27   28 am   BACKBONE|DICT|INTERRES
    55   27   91 1    
    56   28   29 2    
    57   28   30 1    
    58   30   31 1    
    59   30   32 1    
    60   30   92 1    
    61   31   93 1    
    62   31   94 1    
    63   31   95 1    
    64   32   33 am   BACKBONE|DICT|INTERRES
    65   32   96 1    
    66   33   34 2    
    67   33   35 1    
    68   35   36 1    
    69   35   37 1    
    70   35   97 1    
    71   36   98 1    
    72   36   99 1    
    73   36  100 1    
    74   37   38 am   BACKBONE|DICT|INTERRES
    75   37  101 1    
    76   38   39 2    
    77   38   40 1    
    78   40   41 1    
    79   40   42 1    
    80   40  102 1    
    81   41  103 1    
    82   41  104 1    
    83   41  105 1    
    84   42   43 am   BACKBONE|DICT|INTERRES
    85   42  106 1    
    86   43   44 2    
    87   43   45 1    
    88   45   46 1    
    89   45   49 1    
    90   45  107 1    
    91   46   47 1    
    92   46  108 1    
    93   46  109 1    
    94   47   48 1    
    95   48  110 1    
    96   48  111 1    
    97   49   50 am   BACKBONE|DICT|INTERRES
    98   49  112 1    
    99   50   51 2    
   100   50   52 1    
   101   52   53 1    
   102   52   54 1    
   103   52  113 1    
   104   53  114 1    
   105   53  115 1    
   106   53  116 1    
   107   54   55 am   BACKBONE|DICT|INTERRES
   108   54  117 1    
   109   55   56 2    
   110   55   57 1    
   111   57   58 1    
   112   57   59 1    
   113   57  118 1    
   114   58  119 1    
   115   58  120 1    
   116   58  121 1    
   117   59   60 am   BACKBONE|DICT|INTERRES
   118   59  122 1    
   119   60   61 2    
   120   60   62 1    
   121   62   63 1    
   122   62   64 1    
   123   62  123 1    
   124   63  124 1    
   125   63  125 1    
   126   63  126 1    
   127   64   65 am   BACKBONE|DICT|INTERRES
   128   64  127 1    
   129   65   66 2    
@<TRIPOS>SUBSTRUCTURE
     1 UNK         1 GROUP             0       ****    0 ROOT    
