@<TRIPOS>MOLECULE
3R135
127   129    1
SMALL
USER_CHARGES


@<TRIPOS>ATOM
      1 CA        -85.6253   29.5119  -74.2636 C.3       0 UNK        -0.1998 
      2 C         -84.2835   28.8713  -74.5864 C.2       0 UNK         0.4909 
      3 O         -84.0253   28.5415  -75.7449 O.2       0 UNK        -0.5240 
      4 N         -83.4248   28.7022  -73.5733 N.am      1 UNK        -0.4739 
      5 CA        -82.1081   28.0631  -73.6871 C.3       1 UNK         0.0864 
      6 C6        -81.2141   28.3629  -72.4564 C.3       11 UNK        -0.0881 
      7 S7        -80.9539   30.1554  -72.2067 S.3       11 UNK        -0.2682 
      8 C8        -79.9945   30.1932  -70.6570 C.3       11 UNK         0.0289 
      9 C9        -78.5809   29.6738  -70.8675 C.ar      11 UNK        -0.0687 
     10 C10       -78.2788   28.3389  -70.5905 C.ar      11 UNK        -0.0823 
     11 C11       -77.0109   27.8257  -70.8747 C.ar      11 UNK        -0.0830 
     12 C12       -76.0254   28.6710  -71.3954 C.ar      11 UNK        -0.1021 
     13 C13       -76.3055   30.0181  -71.6440 C.ar      11 UNK        -0.0753 
     14 C14       -77.5861   30.5145  -71.3777 C.ar      11 UNK        -0.0933 
     15 C15       -75.2381   30.9198  -72.2471 C.3       11 UNK         0.0166 
     16 S16       -73.8705   31.2106  -71.0829 S.3       11 UNK        -0.2615 
     17 C17       -72.8264   32.3700  -72.0355 C.3       11 UNK        -0.0865 
     18 CA        -71.5340   31.7808  -72.6828 C.3       10 UNK         0.0862 
     19 C         -70.4721   31.1699  -71.7149 C.2       10 UNK         0.5551 
     20 N         -70.5692   31.4008  -70.4122 N.am      10 UNK        -0.7319 
     21 O         -69.5046   30.5490  -72.1513 O.2       10 UNK        -0.5018 
     22 N         -71.8018   30.9935  -73.8994 N.am      10 UNK        -0.4509 
     23 C         -72.1035   29.6905  -73.9913 C.2       10 UNK         0.4899 
     24 O         -72.2515   28.9403  -73.0242 O.2       10 UNK        -0.4839 
     25 CA        -72.3346   29.1580  -75.4225 C.3       9 UNK         0.0222 
     26 CB        -71.3827   29.7701  -76.4761 C.3       9 UNK        -0.1966 
     27 N         -72.3228   27.6934  -75.4892 N.am      9 UNK        -0.4218 
     28 C         -71.2880   26.8660  -75.2815 C.2       9 UNK         0.5020 
     29 O         -70.1308   27.2343  -75.0721 O.2       9 UNK        -0.5274 
     30 CA        -71.5961   25.3582  -75.3127 C.3       8 UNK         0.0270 
     31 CB        -72.1082   24.8889  -73.9409 C.3       8 UNK        -0.1976 
     32 N         -72.5573   24.9766  -76.3528 N.am      8 UNK        -0.4313 
     33 C         -72.3099   25.0152  -77.6705 C.2       8 UNK         0.5041 
     34 O         -71.2304   25.3576  -78.1552 O.2       8 UNK        -0.5577 
     35 CA        -73.4552   24.5998  -78.6117 C.3       7 UNK         0.0284 
     36 CB        -73.5811   23.0693  -78.6856 C.3       7 UNK        -0.1958 
     37 N         -74.7411   25.1847  -78.2280 N.am      7 UNK        -0.4454 
     38 C         -75.0375   26.4890  -78.3225 C.2       7 UNK         0.5089 
     39 O         -74.2898   27.3302  -78.8216 O.2       7 UNK        -0.5125 
     40 CA        -76.3858   26.9396  -77.7320 C.3       6 UNK         0.0408 
     41 CB        -77.5185   26.7616  -78.7546 C.3       6 UNK        -0.1791 
     42 N         -76.7272   26.2408  -76.4903 N.am      6 UNK        -0.4762 
     43 C         -76.0093   26.3068  -75.3598 C.2       6 UNK         0.5007 
     44 O         -75.0060   27.0048  -75.2303 O.2       6 UNK        -0.5032 
     45 CA        -76.4508   25.4125  -74.1891 C.3       5 UNK         0.0783 
     46 C46       -77.5999   26.0712  -73.3989 C.3       11 UNK        -0.0857 
     47 S47       -77.8198   25.3103  -71.7543 S.3       11 UNK        -0.2512 
     48 C48       -76.7348   26.3388  -70.7022 C.3       11 UNK         0.0225 
     49 N         -76.7933   24.0631  -74.6403 N.am      5 UNK        -0.4615 
     50 C         -75.9236   23.1908  -75.1641 C.2       4 UNK         0.5053 
     51 O         -74.7197   23.4123  -75.2836 O.2       4 UNK        -0.5105 
     52 CA        -76.5085   21.8689  -75.6859 C.3       4 UNK         0.0263 
     53 CB        -76.6732   20.8596  -74.5388 C.3       4 UNK        -0.1981 
     54 N         -77.7932   22.0598  -76.3651 N.am      4 UNK        -0.4224 
     55 C         -77.9473   22.7384  -77.5118 C.2       3 UNK         0.4895 
     56 O         -77.0142   23.2263  -78.1500 O.2       3 UNK        -0.5091 
     57 CA        -79.3920   22.9499  -77.9977 C.3       3 UNK         0.0250 
     58 CB        -79.8938   21.7162  -78.7649 C.3       3 UNK        -0.1996 
     59 N         -80.3251   23.2735  -76.9100 N.am      3 UNK        -0.4254 
     60 C         -80.2489   24.3830  -76.1626 C.2       2 UNK         0.5004 
     61 O         -79.3820   25.2478  -76.3123 O.2       2 UNK        -0.5226 
     62 CA        -81.2734   24.5387  -75.0330 C.3       2 UNK         0.0269 
     63 CB        -80.8956   23.6492  -73.8313 C.3       2 UNK        -0.1926 
     64 N         -81.3073   25.9480  -74.6417 N.am      2 UNK        -0.4687 
     65 C         -82.2551   26.5406  -73.9079 C.2       1 UNK         0.5165 
     66 O         -83.2054   25.9344  -73.4045 O.2       1 UNK        -0.5079 
     67 H67       -85.7114   29.7673  -73.2075 H         1 UNK         0.0900 
     68 H68       -85.7550   30.4246  -74.8445 H         1 UNK         0.0900 
     69 H69       -86.4366   28.8292  -74.5146 H         1 UNK         0.0900 
     70 H70       -83.6909   28.9844  -72.6411 H         1 UNK         0.2959 
     71 H71       -81.6176   28.4795  -74.5702 H         1 UNK         0.1079 
     72 H72       -80.2376   27.8911  -72.5806 H         1 UNK         0.0837 
     73 H73       -81.6502   27.9396  -71.5493 H         1 UNK         0.0837 
     74 H74       -80.5115   29.6136  -69.8905 H         1 UNK         0.0685 
     75 H75       -79.9562   31.2199  -70.2900 H         1 UNK         0.0685 
     76 H76       -79.0478   27.6806  -70.2095 H         1 UNK         0.1434 
     77 H77       -75.0438   28.2818  -71.6324 H         1 UNK         0.1329 
     78 H78       -77.8205   31.5479  -71.5941 H         1 UNK         0.1335 
     79 H79       -75.6686   31.8781  -72.5417 H         1 UNK         0.0680 
     80 H80       -74.8518   30.4592  -73.1569 H         1 UNK         0.0680 
     81 H81       -72.5544   33.1875  -71.3658 H         1 UNK         0.1032 
     82 H82       -73.4326   32.8437  -72.8089 H         1 UNK         0.1032 
     83 H83       -71.0062   32.6497  -73.0779 H         1 UNK         0.0461 
     84 H84       -69.8656   31.0306  -69.7928 H         1 UNK         0.3453 
     85 H85       -71.3677   31.8868  -70.0355 H         1 UNK         0.3453 
     86 H86       -71.6896   31.5030  -74.7633 H         1 UNK         0.2984 
     87 H87       -73.3518   29.4470  -75.6909 H         1 UNK         0.0554 
     88 H88       -71.5757   30.8329  -76.6227 H         1 UNK         0.0847 
     89 H89       -71.5119   29.2911  -77.4471 H         1 UNK         0.0847 
     90 H90       -70.3359   29.6619  -76.1896 H         1 UNK         0.0847 
     91 H91       -73.2506   27.2765  -75.5537 H         1 UNK         0.3141 
     92 H92       -70.6599   24.8352  -75.5194 H         1 UNK         0.0743 
     93 H93       -71.3970   25.1391  -73.1525 H         1 UNK         0.0784 
     94 H94       -73.0580   25.3590  -73.6839 H         1 UNK         0.0784 
     95 H95       -72.2515   23.8084  -73.9185 H         1 UNK         0.0784 
     96 H96       -73.4496   24.6048  -76.0346 H         1 UNK         0.3213 
     97 H97       -73.2088   24.9640  -79.6116 H         1 UNK         0.0855 
     98 H98       -73.8389   22.6345  -77.7199 H         1 UNK         0.0814 
     99 H99       -72.6421   22.6166  -79.0067 H         1 UNK         0.0814 
    100 H100      -74.3476   22.7694  -79.4006 H         1 UNK         0.0814 
    101 H101      -75.4508   24.5524  -77.8718 H         1 UNK         0.3105 
    102 H102      -76.3055   28.0032  -77.4979 H         1 UNK         0.0547 
    103 H103      -77.3055   27.3119  -79.6719 H         1 UNK         0.0837 
    104 H104      -78.4665   27.1333  -78.3653 H         1 UNK         0.0837 
    105 H105      -77.6573   25.7154  -79.0270 H         1 UNK         0.0837 
    106 H106      -77.5849   25.6919  -76.4943 H         1 UNK         0.3020 
    107 H107      -75.5861   25.3282  -73.5269 H         1 UNK         0.1245 
    108 H108      -78.5400   25.9783  -73.9405 H         1 UNK         0.0781 
    109 H109      -77.4434   27.1449  -73.2992 H         1 UNK         0.0781 
    110 H110      -75.6945   26.1075  -70.9362 H         1 UNK         0.0836 
    111 H111      -76.8842   26.0629  -69.6575 H         1 UNK         0.0836 
    112 H112      -77.7678   23.8104  -74.5968 H         1 UNK         0.3022 
    113 H113      -75.8019   21.4551  -76.4086 H         1 UNK         0.0747 
    114 H114      -77.0170   19.8930  -74.9074 H         1 UNK         0.0793 
    115 H115      -75.7227   20.6909  -74.0304 H         1 UNK         0.0793 
    116 H116      -77.3859   21.2071  -73.7897 H         1 UNK         0.0793 
    117 H117      -78.6138   21.6831  -75.9138 H         1 UNK         0.3047 
    118 H118      -79.3819   23.7965  -78.6878 H         1 UNK         0.0822 
    119 H119      -80.8790   21.8920  -79.1974 H         1 UNK         0.0807 
    120 H120      -79.9603   20.8366  -78.1234 H         1 UNK         0.0807 
    121 H121      -79.2210   21.4693  -79.5876 H         1 UNK         0.0807 
    122 H122      -81.0626   22.6071  -76.7289 H         1 UNK         0.2946 
    123 H123      -82.2571   24.2537  -75.4130 H         1 UNK         0.1144 
    124 H124      -79.9221   23.9156  -73.4210 H         1 UNK         0.0793 
    125 H125      -80.8539   22.5971  -74.1152 H         1 UNK         0.0793 
    126 H126      -81.6262   23.7305  -73.0266 H         1 UNK         0.0793 
    127 H127      -80.5642   26.4965  -75.0587 H         1 UNK         0.2896 
@<TRIPOS>BOND
     1    1    2 1    
     2    1   67 1    
     3    1   68 1    
     4    1   69 1    
     5    2    3 2    
     6    2    4 am   BACKBONE|DICT|INTERRES
     7    4    5 1    
     8    4   70 1    
     9    5    6 1    
    10    5   65 1    
    11    5   71 1    
    12    6    7 1    
    13    6   72 1    
    14    6   73 1    
    15    7    8 1    
    16    8    9 1    
    17    8   74 1    
    18    8   75 1    
    19    9   10 ar   
    20    9   14 ar   
    21   10   11 ar   
    22   10   76 1    
    23   11   12 ar   
    24   11   48 1    
    25   12   13 ar   
    26   12   77 1    
    27   13   14 ar   
    28   13   15 1    
    29   14   78 1    
    30   15   16 1    
    31   15   79 1    
    32   15   80 1    
    33   16   17 1    
    34   17   18 1    
    35   17   81 1    
    36   17   82 1    
    37   18   19 1    
    38   18   22 1    
    39   18   83 1    
    40   19   20 am   BACKBONE|DICT|INTERRES
    41   19   21 2    
    42   20   84 1    
    43   20   85 1    
    44   22   23 am   BACKBONE|DICT|INTERRES
    45   22   86 1    
    46   23   24 2    
    47   23   25 1    
    48   25   26 1    
    49   25   27 1    
    50   25   87 1    
    51   26   88 1    
    52   26   89 1    
    53   26   90 1    
    54   27   28 am   BACKBONE|DICT|INTERRES
    55   27   91 1    
    56   28   29 2    
    57   28   30 1    
    58   30   31 1    
    59   30   32 1    
    60   30   92 1    
    61   31   93 1    
    62   31   94 1    
    63   31   95 1    
    64   32   33 am   BACKBONE|DICT|INTERRES
    65   32   96 1    
    66   33   34 2    
    67   33   35 1    
    68   35   36 1    
    69   35   37 1    
    70   35   97 1    
    71   36   98 1    
    72   36   99 1    
    73   36  100 1    
    74   37   38 am   BACKBONE|DICT|INTERRES
    75   37  101 1    
    76   38   39 2    
    77   38   40 1    
    78   40   41 1    
    79   40   42 1    
    80   40  102 1    
    81   41  103 1    
    82   41  104 1    
    83   41  105 1    
    84   42   43 am   BACKBONE|DICT|INTERRES
    85   42  106 1    
    86   43   44 2    
    87   43   45 1    
    88   45   46 1    
    89   45   49 1    
    90   45  107 1    
    91   46   47 1    
    92   46  108 1    
    93   46  109 1    
    94   47   48 1    
    95   48  110 1    
    96   48  111 1    
    97   49   50 am   BACKBONE|DICT|INTERRES
    98   49  112 1    
    99   50   51 2    
   100   50   52 1    
   101   52   53 1    
   102   52   54 1    
   103   52  113 1    
   104   53  114 1    
   105   53  115 1    
   106   53  116 1    
   107   54   55 am   BACKBONE|DICT|INTERRES
   108   54  117 1    
   109   55   56 2    
   110   55   57 1    
   111   57   58 1    
   112   57   59 1    
   113   57  118 1    
   114   58  119 1    
   115   58  120 1    
   116   58  121 1    
   117   59   60 am   BACKBONE|DICT|INTERRES
   118   59  122 1    
   119   60   61 2    
   120   60   62 1    
   121   62   63 1    
   122   62   64 1    
   123   62  123 1    
   124   63  124 1    
   125   63  125 1    
   126   63  126 1    
   127   64   65 am   BACKBONE|DICT|INTERRES
   128   64  127 1    
   129   65   66 2    
@<TRIPOS>SUBSTRUCTURE
     1 UNK         1 GROUP             0       ****    0 ROOT    
