@<TRIPOS>MOLECULE
3R135
127   129    1
SMALL
USER_CHARGES


@<TRIPOS>ATOM
      1 CA        -83.3263   29.2246  -76.4590 C.3       0 UNK        -0.1998 
      2 C         -82.1410   28.7346  -75.6415 C.2       0 UNK         0.4909 
      3 O         -81.0021   29.0923  -75.9416 O.2       0 UNK        -0.5240 
      4 N         -82.4000   27.9206  -74.6082 N.am      1 UNK        -0.4739 
      5 CA        -81.3763   27.3266  -73.7409 C.3       1 UNK         0.0864 
      6 C6        -82.0021   26.7478  -72.4465 C.3       11 UNK        -0.0881 
      7 S7        -80.8016   26.1106  -71.2205 S.3       11 UNK        -0.2682 
      8 C8        -80.5708   27.5236  -70.0953 C.3       11 UNK         0.0289 
      9 C9        -79.2883   28.2846  -70.4008 C.ar      11 UNK        -0.0687 
     10 C10       -79.2961   29.3559  -71.2965 C.ar      11 UNK        -0.0823 
     11 C11       -78.1227   30.0680  -71.5598 C.ar      11 UNK        -0.0830 
     12 C12       -76.9425   29.7205  -70.8961 C.ar      11 UNK        -0.1021 
     13 C13       -76.9135   28.6457  -69.9968 C.ar      11 UNK        -0.0753 
     14 C14       -78.0946   27.9331  -69.7623 C.ar      11 UNK        -0.0933 
     15 C15       -75.6546   28.2317  -69.2276 C.3       11 UNK         0.0166 
     16 S16       -74.0874   29.0114  -69.7536 S.3       11 UNK        -0.2615 
     17 C17       -73.7788   28.1533  -71.3328 C.3       11 UNK        -0.0865 
     18 CA        -72.4909   28.6395  -72.0543 C.3       10 UNK         0.0862 
     19 C         -71.2009   27.9708  -71.4841 C.2       10 UNK         0.5551 
     20 N         -70.4289   27.2207  -72.2626 N.am      10 UNK        -0.7319 
     21 O         -70.8798   28.1471  -70.3118 O.2       10 UNK        -0.5018 
     22 N         -72.6422   28.5154  -73.5110 N.am      10 UNK        -0.4509 
     23 C         -71.9421   29.1978  -74.4243 C.2       10 UNK         0.4899 
     24 O         -71.1470   30.0957  -74.1415 O.2       10 UNK        -0.4839 
     25 CA        -72.1685   28.8040  -75.9001 C.3       9 UNK         0.0222 
     26 CB        -71.0339   29.2924  -76.8251 C.3       9 UNK        -0.1966 
     27 N         -72.4088   27.3678  -76.1075 N.am      9 UNK        -0.4218 
     28 C         -71.6145   26.3467  -75.7465 C.2       9 UNK         0.5020 
     29 O         -70.5569   26.4904  -75.1310 O.2       9 UNK        -0.5274 
     30 CA        -72.0604   24.9194  -76.1213 C.3       8 UNK         0.0270 
     31 CB        -72.3622   24.0727  -74.8738 C.3       8 UNK        -0.1976 
     32 N         -73.2055   24.8671  -77.0387 N.am      8 UNK        -0.4313 
     33 C         -73.0964   25.0356  -78.3645 C.2       8 UNK         0.5041 
     34 O         -72.0396   25.3157  -78.9315 O.2       8 UNK        -0.5577 
     35 CA        -74.3647   24.8607  -79.2056 C.3       7 UNK         0.0284 
     36 CB        -74.7205   23.3715  -79.3501 C.3       7 UNK        -0.1958 
     37 N         -75.4991   25.5840  -78.6280 N.am      7 UNK        -0.4454 
     38 C         -76.1870   26.5369  -79.2698 C.2       7 UNK         0.5089 
     39 O         -75.9165   26.9395  -80.4020 O.2       7 UNK        -0.5125 
     40 CA        -77.4046   27.1348  -78.5463 C.3       6 UNK         0.0408 
     41 CB        -78.6537   26.2819  -78.8165 C.3       6 UNK        -0.1791 
     42 N         -77.2309   27.3171  -77.1025 N.am      6 UNK        -0.4762 
     43 C         -76.3859   28.1988  -76.5468 C.2       6 UNK         0.5007 
     44 O         -75.5451   28.8373  -77.1791 O.2       6 UNK        -0.5032 
     45 CA        -76.5267   28.4230  -75.0312 C.3       5 UNK         0.0783 
     46 C46       -77.6570   29.4471  -74.7190 C.3       11 UNK        -0.0857 
     47 S47       -76.9962   30.9648  -73.9526 S.3       11 UNK        -0.2512 
     48 C48       -78.1352   31.2243  -72.5516 C.3       11 UNK         0.0225 
     49 N         -76.7311   27.1481  -74.3433 N.am      5 UNK        -0.4615 
     50 C         -75.7462   26.3343  -73.9611 C.2       4 UNK         0.5053 
     51 O         -74.5553   26.5963  -74.1049 O.2       4 UNK        -0.5105 
     52 CA        -76.1517   24.9963  -73.3262 C.3       4 UNK         0.0263 
     53 CB        -76.8007   25.2246  -71.9507 C.3       4 UNK        -0.1981 
     54 N         -77.0323   24.1684  -74.1570 N.am      4 UNK        -0.4224 
     55 C         -76.8376   23.8196  -75.4383 C.2       3 UNK         0.4895 
     56 O         -75.9134   24.2419  -76.1369 O.2       3 UNK        -0.5091 
     57 CA        -77.8247   22.8065  -76.0538 C.3       3 UNK         0.0250 
     58 CB        -77.1053   21.4705  -76.3021 C.3       3 UNK        -0.1996 
     59 N         -78.9979   22.5422  -75.2093 N.am      3 UNK        -0.4254 
     60 C         -80.1504   23.2258  -75.1376 C.2       2 UNK         0.5004 
     61 O         -81.0349   22.8997  -74.3456 O.2       2 UNK        -0.5226 
     62 CA        -80.4127   24.4191  -76.0805 C.3       2 UNK         0.0269 
     63 CB        -81.2398   23.9812  -77.2994 C.3       2 UNK        -0.1926 
     64 N         -81.1161   25.4924  -75.3768 N.am      2 UNK        -0.4687 
     65 C         -80.5102   26.2988  -74.4954 C.2       1 UNK         0.5165 
     66 O         -79.2975   26.2763  -74.2976 O.2       1 UNK        -0.5079 
     67 H67       -83.3792   30.3124  -76.4267 H         1 UNK         0.0900 
     68 H68       -83.2152   28.9194  -77.4991 H         1 UNK         0.0900 
     69 H69       -84.2709   28.8276  -76.0878 H         1 UNK         0.0900 
     70 H70       -83.3568   27.6661  -74.4062 H         1 UNK         0.2959 
     71 H71       -80.7015   28.1322  -73.4506 H         1 UNK         0.1079 
     72 H72       -82.6274   27.5029  -71.9684 H         1 UNK         0.0837 
     73 H73       -82.6783   25.9281  -72.6965 H         1 UNK         0.0837 
     74 H74       -81.4302   28.1941  -70.1326 H         1 UNK         0.0685 
     75 H75       -80.5352   27.1454  -69.0724 H         1 UNK         0.0685 
     76 H76       -80.2187   29.6393  -71.7829 H         1 UNK         0.1434 
     77 H77       -76.0511   30.2974  -71.0955 H         1 UNK         0.1329 
     78 H78       -78.0892   27.1055  -69.0659 H         1 UNK         0.1335 
     79 H79       -75.8091   28.4747  -68.1756 H         1 UNK         0.0680 
     80 H80       -75.5366   27.1482  -69.2759 H         1 UNK         0.0680 
     81 H81       -73.7584   27.0735  -71.1733 H         1 UNK         0.1032 
     82 H82       -74.6499   28.3425  -71.9615 H         1 UNK         0.1032 
     83 H83       -72.3850   29.7072  -71.8525 H         1 UNK         0.0461 
     84 H84       -70.6434   27.0805  -73.2445 H         1 UNK         0.3453 
     85 H85       -69.5978   26.8068  -71.8723 H         1 UNK         0.3453 
     86 H86       -73.2661   27.7737  -73.8278 H         1 UNK         0.2984 
     87 H87       -73.0825   29.3130  -76.2065 H         1 UNK         0.0554 
     88 H88       -70.9302   30.3773  -76.7821 H         1 UNK         0.0847 
     89 H89       -71.2288   29.0288  -77.8646 H         1 UNK         0.0847 
     90 H90       -70.0720   28.8615  -76.5446 H         1 UNK         0.0847 
     91 H91       -73.2791   27.1317  -76.5625 H         1 UNK         0.3141 
     92 H92       -71.2049   24.4565  -76.6182 H         1 UNK         0.0743 
     93 H93       -73.2235   24.4465  -74.3265 H         1 UNK         0.0784 
     94 H94       -72.5623   23.0348  -75.1400 H         1 UNK         0.0784 
     95 H95       -71.5159   24.0722  -74.1854 H         1 UNK         0.0784 
     96 H96       -74.1100   24.6296  -76.6373 H         1 UNK         0.3213 
     97 H97       -74.1362   25.2413  -80.2035 H         1 UNK         0.0855 
     98 H98       -74.9292   22.9095  -78.3859 H         1 UNK         0.0814 
     99 H99       -73.8988   22.8172  -79.8056 H         1 UNK         0.0814 
    100 H100      -75.5961   23.2335  -79.9845 H         1 UNK         0.0814 
    101 H101      -75.7863   25.3090  -77.6926 H         1 UNK         0.3105 
    102 H102      -77.5830   28.1244  -78.9730 H         1 UNK         0.0547 
    103 H103      -79.5323   26.6828  -78.3103 H         1 UNK         0.0837 
    104 H104      -78.8802   26.2597  -79.8834 H         1 UNK         0.0837 
    105 H105      -78.5133   25.2486  -78.5006 H         1 UNK         0.0837 
    106 H106      -77.8796   26.8391  -76.4943 H         1 UNK         0.3020 
    107 H107      -75.5711   28.8345  -74.6970 H         1 UNK         0.1245 
    108 H108      -78.4075   29.0060  -74.0629 H         1 UNK         0.0781 
    109 H109      -78.2159   29.7471  -75.6086 H         1 UNK         0.0781 
    110 H110      -79.1395   31.3937  -72.9433 H         1 UNK         0.0836 
    111 H111      -77.8511   32.1399  -72.0312 H         1 UNK         0.0836 
    112 H112      -77.6958   26.8387  -74.2146 H         1 UNK         0.3022 
    113 H113      -75.2380   24.4221  -73.1677 H         1 UNK         0.0747 
    114 H114      -76.9758   24.2829  -71.4307 H         1 UNK         0.0793 
    115 H115      -76.1576   25.8306  -71.3120 H         1 UNK         0.0793 
    116 H116      -77.7565   25.7441  -72.0328 H         1 UNK         0.0793 
    117 H117      -77.8470   23.7945  -73.6933 H         1 UNK         0.3047 
    118 H118      -78.1376   23.1857  -77.0273 H         1 UNK         0.0822 
    119 H119      -77.7626   20.7510  -76.7911 H         1 UNK         0.0807 
    120 H120      -76.7498   21.0223  -75.3732 H         1 UNK         0.0807 
    121 H121      -76.2381   21.6010  -76.9494 H         1 UNK         0.0807 
    122 H122      -78.9015   21.7499  -74.5901 H         1 UNK         0.2946 
    123 H123      -79.4702   24.8348  -76.4293 H         1 UNK         0.1144 
    124 H124      -81.4241   24.8154  -77.9765 H         1 UNK         0.0793 
    125 H125      -82.2058   23.5690  -77.0045 H         1 UNK         0.0793 
    126 H126      -80.7176   23.2113  -77.8690 H         1 UNK         0.0793 
    127 H127      -82.1181   25.5444  -75.4863 H         1 UNK         0.2896 
@<TRIPOS>BOND
     1    1    2 1    
     2    1   67 1    
     3    1   68 1    
     4    1   69 1    
     5    2    3 2    
     6    2    4 am   BACKBONE|DICT|INTERRES
     7    4    5 1    
     8    4   70 1    
     9    5    6 1    
    10    5   65 1    
    11    5   71 1    
    12    6    7 1    
    13    6   72 1    
    14    6   73 1    
    15    7    8 1    
    16    8    9 1    
    17    8   74 1    
    18    8   75 1    
    19    9   10 ar   
    20    9   14 ar   
    21   10   11 ar   
    22   10   76 1    
    23   11   12 ar   
    24   11   48 1    
    25   12   13 ar   
    26   12   77 1    
    27   13   14 ar   
    28   13   15 1    
    29   14   78 1    
    30   15   16 1    
    31   15   79 1    
    32   15   80 1    
    33   16   17 1    
    34   17   18 1    
    35   17   81 1    
    36   17   82 1    
    37   18   19 1    
    38   18   22 1    
    39   18   83 1    
    40   19   20 am   BACKBONE|DICT|INTERRES
    41   19   21 2    
    42   20   84 1    
    43   20   85 1    
    44   22   23 am   BACKBONE|DICT|INTERRES
    45   22   86 1    
    46   23   24 2    
    47   23   25 1    
    48   25   26 1    
    49   25   27 1    
    50   25   87 1    
    51   26   88 1    
    52   26   89 1    
    53   26   90 1    
    54   27   28 am   BACKBONE|DICT|INTERRES
    55   27   91 1    
    56   28   29 2    
    57   28   30 1    
    58   30   31 1    
    59   30   32 1    
    60   30   92 1    
    61   31   93 1    
    62   31   94 1    
    63   31   95 1    
    64   32   33 am   BACKBONE|DICT|INTERRES
    65   32   96 1    
    66   33   34 2    
    67   33   35 1    
    68   35   36 1    
    69   35   37 1    
    70   35   97 1    
    71   36   98 1    
    72   36   99 1    
    73   36  100 1    
    74   37   38 am   BACKBONE|DICT|INTERRES
    75   37  101 1    
    76   38   39 2    
    77   38   40 1    
    78   40   41 1    
    79   40   42 1    
    80   40  102 1    
    81   41  103 1    
    82   41  104 1    
    83   41  105 1    
    84   42   43 am   BACKBONE|DICT|INTERRES
    85   42  106 1    
    86   43   44 2    
    87   43   45 1    
    88   45   46 1    
    89   45   49 1    
    90   45  107 1    
    91   46   47 1    
    92   46  108 1    
    93   46  109 1    
    94   47   48 1    
    95   48  110 1    
    96   48  111 1    
    97   49   50 am   BACKBONE|DICT|INTERRES
    98   49  112 1    
    99   50   51 2    
   100   50   52 1    
   101   52   53 1    
   102   52   54 1    
   103   52  113 1    
   104   53  114 1    
   105   53  115 1    
   106   53  116 1    
   107   54   55 am   BACKBONE|DICT|INTERRES
   108   54  117 1    
   109   55   56 2    
   110   55   57 1    
   111   57   58 1    
   112   57   59 1    
   113   57  118 1    
   114   58  119 1    
   115   58  120 1    
   116   58  121 1    
   117   59   60 am   BACKBONE|DICT|INTERRES
   118   59  122 1    
   119   60   61 2    
   120   60   62 1    
   121   62   63 1    
   122   62   64 1    
   123   62  123 1    
   124   63  124 1    
   125   63  125 1    
   126   63  126 1    
   127   64   65 am   BACKBONE|DICT|INTERRES
   128   64  127 1    
   129   65   66 2    
@<TRIPOS>SUBSTRUCTURE
     1 UNK         1 GROUP             0       ****    0 ROOT    
