@<TRIPOS>MOLECULE
3R135
127   129    1
SMALL
USER_CHARGES


@<TRIPOS>ATOM
      1 CA        -84.5165   30.4922  -74.7599 C.3       0 UNK        -0.1998 
      2 C         -83.2673   29.7388  -75.1914 C.2       0 UNK         0.4909 
      3 O         -82.8766   29.8176  -76.3566 O.2       0 UNK        -0.5240 
      4 N         -82.6333   29.0162  -74.2596 N.am      1 UNK        -0.4739 
      5 CA        -81.4470   28.1886  -74.4994 C.3       1 UNK         0.0864 
      6 C6        -80.7177   27.8256  -73.1788 C.3       11 UNK        -0.0881 
      7 S7        -80.1879   29.3128  -72.2572 S.3       11 UNK        -0.2682 
      8 C8        -78.4484   29.4834  -72.7744 C.3       11 UNK         0.0289 
      9 C9        -77.4566   29.0021  -71.7204 C.ar      11 UNK        -0.0687 
     10 C10       -77.5636   27.7301  -71.1455 C.ar      11 UNK        -0.0823 
     11 C11       -76.6278   27.2979  -70.1997 C.ar      11 UNK        -0.0830 
     12 C12       -75.5604   28.1311  -69.8554 C.ar      11 UNK        -0.1021 
     13 C13       -75.4347   29.3982  -70.4286 C.ar      11 UNK        -0.0753 
     14 C14       -76.4000   29.8356  -71.3403 C.ar      11 UNK        -0.0933 
     15 C15       -74.2568   30.2883  -70.0560 C.3       11 UNK         0.0166 
     16 S16       -72.8809   30.1278  -71.2435 S.3       11 UNK        -0.2615 
     17 C17       -73.4952   31.1276  -72.6405 C.3       11 UNK        -0.0865 
     18 CA        -73.9961   30.2539  -73.8328 C.3       10 UNK         0.0862 
     19 C         -74.9953   31.0149  -74.7618 C.2       10 UNK         0.5551 
     20 N         -75.1625   30.6156  -76.0148 N.am      10 UNK        -0.7319 
     21 O         -75.6536   31.9634  -74.3414 O.2       10 UNK        -0.5018 
     22 N         -72.8919   29.5748  -74.5390 N.am      10 UNK        -0.4509 
     23 C         -71.9332   30.1809  -75.2533 C.2       10 UNK         0.4899 
     24 O         -71.8740   31.4024  -75.4030 O.2       10 UNK        -0.4839 
     25 CA        -70.8524   29.3232  -75.9431 C.3       9 UNK         0.0222 
     26 CB        -69.4524   29.6343  -75.3741 C.3       9 UNK        -0.1966 
     27 N         -71.0888   27.8738  -75.9924 N.am      9 UNK        -0.4218 
     28 C         -71.0823   26.9725  -75.0015 C.2       9 UNK         0.5020 
     29 O         -70.9459   27.2653  -73.8133 O.2       9 UNK        -0.5274 
     30 CA        -71.2491   25.4937  -75.4222 C.3       8 UNK         0.0270 
     31 CB        -71.2913   24.5381  -74.2148 C.3       8 UNK        -0.1976 
     32 N         -72.4419   25.2657  -76.2430 N.am      8 UNK        -0.4313 
     33 C         -72.6170   25.6481  -77.5153 C.2       8 UNK         0.5041 
     34 O         -71.7352   26.1769  -78.1942 O.2       8 UNK        -0.5577 
     35 CA        -74.0323   25.4916  -78.0997 C.3       7 UNK         0.0284 
     36 CB        -74.2347   24.0838  -78.6804 C.3       7 UNK        -0.1958 
     37 N         -75.0816   25.7930  -77.1182 N.am      7 UNK        -0.4454 
     38 C         -75.2413   26.9896  -76.5307 C.2       7 UNK         0.5089 
     39 O         -74.5592   27.9786  -76.7971 O.2       7 UNK        -0.5125 
     40 CA        -76.3252   27.0951  -75.4466 C.3       6 UNK         0.0408 
     41 CB        -77.7011   27.3451  -76.0861 C.3       6 UNK        -0.1791 
     42 N         -76.3651   25.8917  -74.6127 N.am      6 UNK        -0.4762 
     43 C         -75.4661   25.6102  -73.6546 C.2       6 UNK         0.5007 
     44 O         -74.5565   26.3741  -73.3340 O.2       6 UNK        -0.5032 
     45 CA        -75.5679   24.2193  -72.9844 C.3       5 UNK         0.0783 
     46 C46       -76.4971   24.2314  -71.7450 C.3       11 UNK        -0.0857 
     47 S47       -75.6265   24.7131  -70.2206 S.3       11 UNK        -0.2512 
     48 C48       -76.7705   25.9432  -69.5239 C.3       11 UNK         0.0225 
     49 N         -75.9863   23.1768  -73.9245 N.am      5 UNK        -0.4615 
     50 C         -75.2868   22.7658  -74.9892 C.2       4 UNK         0.5053 
     51 O         -74.1635   23.1804  -75.2670 O.2       4 UNK        -0.5105 
     52 CA        -75.9841   21.7661  -75.9326 C.3       4 UNK         0.0263 
     53 CB        -75.6012   20.3252  -75.5617 C.3       4 UNK        -0.1981 
     54 N         -77.4481   21.8943  -75.9586 N.am      4 UNK        -0.4224 
     55 C         -78.1131   23.0131  -76.2799 C.2       3 UNK         0.4895 
     56 O         -77.5586   24.0647  -76.6137 O.2       3 UNK        -0.5091 
     57 CA        -79.6381   22.9693  -76.1328 C.3       3 UNK         0.0250 
     58 CB        -80.0496   22.7937  -74.6568 C.3       3 UNK        -0.1996 
     59 N         -80.1965   24.2171  -76.6445 N.am      3 UNK        -0.4254 
     60 C         -81.4396   24.3867  -77.1050 C.2       2 UNK         0.5004 
     61 O         -82.2739   23.4812  -77.1712 O.2       2 UNK        -0.5226 
     62 CA        -81.8020   25.8179  -77.5508 C.3       2 UNK         0.0269 
     63 CB        -83.2859   25.9618  -77.9537 C.3       2 UNK        -0.1926 
     64 N         -81.4418   26.8479  -76.5618 N.am      2 UNK        -0.4687 
     65 C         -81.8599   26.9281  -75.2873 C.2       1 UNK         0.5165 
     66 O         -82.5698   26.0854  -74.7342 O.2       1 UNK        -0.5079 
     67 H67       -84.3880   31.5606  -74.9313 H         1 UNK         0.0900 
     68 H68       -84.7383   30.3427  -73.7034 H         1 UNK         0.0900 
     69 H69       -85.3762   30.1548  -75.3382 H         1 UNK         0.0900 
     70 H70       -83.0002   28.9836  -73.3191 H         1 UNK         0.2959 
     71 H71       -80.7521   28.7680  -75.1118 H         1 UNK         0.1079 
     72 H72       -81.3744   27.2462  -72.5269 H         1 UNK         0.0837 
     73 H73       -79.8544   27.1872  -73.3723 H         1 UNK         0.0837 
     74 H74       -78.2756   30.5369  -73.0006 H         1 UNK         0.0685 
     75 H75       -78.2706   28.9488  -73.7060 H         1 UNK         0.0685 
     76 H76       -78.3829   27.0832  -71.4239 H         1 UNK         0.1434 
     77 H77       -74.8247   27.7895  -69.1399 H         1 UNK         0.1329 
     78 H78       -76.3150   30.8206  -71.7767 H         1 UNK         0.1335 
     79 H79       -74.5738   31.3297  -69.9830 H         1 UNK         0.0680 
     80 H80       -73.8891   30.0190  -69.0646 H         1 UNK         0.0680 
     81 H81       -74.2781   31.7861  -72.2646 H         1 UNK         0.1032 
     82 H82       -72.7005   31.8021  -72.9600 H         1 UNK         0.1032 
     83 H83       -74.5948   29.4443  -73.4159 H         1 UNK         0.0461 
     84 H84       -74.7053   29.7724  -76.3521 H         1 UNK         0.3453 
     85 H85       -75.8057   31.1123  -76.6090 H         1 UNK         0.3453 
     86 H86       -72.8614   28.5688  -74.4476 H         1 UNK         0.2984 
     87 H87       -70.8530   29.6403  -76.9870 H         1 UNK         0.0554 
     88 H88       -68.6750   29.0867  -75.9067 H         1 UNK         0.0847 
     89 H89       -69.3789   29.3807  -74.3161 H         1 UNK         0.0847 
     90 H90       -69.2194   30.6959  -75.4666 H         1 UNK         0.0847 
     91 H91       -71.2590   27.4956  -76.9230 H         1 UNK         0.3141 
     92 H92       -70.3727   25.2337  -76.0193 H         1 UNK         0.0743 
     93 H93       -72.1446   24.7478  -73.5685 H         1 UNK         0.0784 
     94 H94       -71.3611   23.4979  -74.5335 H         1 UNK         0.0784 
     95 H95       -70.3895   24.6307  -73.6082 H         1 UNK         0.0784 
     96 H96       -73.2077   24.7743  -75.7891 H         1 UNK         0.3213 
     97 H97       -74.1356   26.2121  -78.9140 H         1 UNK         0.0855 
     98 H98       -74.0195   23.3082  -77.9466 H         1 UNK         0.0814 
     99 H99       -73.5650   23.9177  -79.5252 H         1 UNK         0.0814 
    100 H100      -75.2537   23.9393  -79.0401 H         1 UNK         0.0814 
    101 H101      -75.7249   25.0483  -76.8739 H         1 UNK         0.3105 
    102 H102      -76.0913   27.9474  -74.8055 H         1 UNK         0.0547 
    103 H103      -77.7423   28.3435  -76.5235 H         1 UNK         0.0837 
    104 H104      -77.9170   26.6374  -76.8864 H         1 UNK         0.0837 
    105 H105      -78.5032   27.2745  -75.3548 H         1 UNK         0.0837 
    106 H106      -77.0212   25.1736  -74.8920 H         1 UNK         0.3020 
    107 H107      -74.5581   23.9518  -72.6632 H         1 UNK         0.1245 
    108 H108      -76.8878   23.2304  -71.5539 H         1 UNK         0.0781 
    109 H109      -77.3761   24.8567  -71.9106 H         1 UNK         0.0781 
    110 H110      -76.5593   26.0508  -68.4588 H         1 UNK         0.0836 
    111 H111      -77.7965   25.5774  -69.5894 H         1 UNK         0.0836 
    112 H112      -76.8949   22.7676  -73.7685 H         1 UNK         0.3022 
    113 H113      -75.6253   21.9630  -76.9436 H         1 UNK         0.0747 
    114 H114      -76.0071   19.6093  -76.2767 H         1 UNK         0.0793 
    115 H115      -74.5175   20.1981  -75.5600 H         1 UNK         0.0793 
    116 H116      -75.9628   20.0525  -74.5693 H         1 UNK         0.0793 
    117 H117      -77.9763   21.0743  -75.6956 H         1 UNK         0.3047 
    118 H118      -80.0116   22.1323  -76.7268 H         1 UNK         0.0822 
    119 H119      -79.6777   21.8554  -74.2440 H         1 UNK         0.0807 
    120 H120      -81.1345   22.7787  -74.5484 H         1 UNK         0.0807 
    121 H121      -79.6683   23.6034  -74.0332 H         1 UNK         0.0807 
    122 H122      -79.5360   24.9818  -76.6865 H         1 UNK         0.2946 
    123 H123      -81.2029   26.0152  -78.4416 H         1 UNK         0.1144 
    124 H124      -83.5394   25.2792  -78.7658 H         1 UNK         0.0793 
    125 H125      -83.5063   26.9718  -78.2997 H         1 UNK         0.0793 
    126 H126      -83.9552   25.7401  -77.1217 H         1 UNK         0.0793 
    127 H127      -80.8876   27.6118  -76.9239 H         1 UNK         0.2896 
@<TRIPOS>BOND
     1    1    2 1    
     2    1   67 1    
     3    1   68 1    
     4    1   69 1    
     5    2    3 2    
     6    2    4 am   BACKBONE|DICT|INTERRES
     7    4    5 1    
     8    4   70 1    
     9    5    6 1    
    10    5   65 1    
    11    5   71 1    
    12    6    7 1    
    13    6   72 1    
    14    6   73 1    
    15    7    8 1    
    16    8    9 1    
    17    8   74 1    
    18    8   75 1    
    19    9   10 ar   
    20    9   14 ar   
    21   10   11 ar   
    22   10   76 1    
    23   11   12 ar   
    24   11   48 1    
    25   12   13 ar   
    26   12   77 1    
    27   13   14 ar   
    28   13   15 1    
    29   14   78 1    
    30   15   16 1    
    31   15   79 1    
    32   15   80 1    
    33   16   17 1    
    34   17   18 1    
    35   17   81 1    
    36   17   82 1    
    37   18   19 1    
    38   18   22 1    
    39   18   83 1    
    40   19   20 am   BACKBONE|DICT|INTERRES
    41   19   21 2    
    42   20   84 1    
    43   20   85 1    
    44   22   23 am   BACKBONE|DICT|INTERRES
    45   22   86 1    
    46   23   24 2    
    47   23   25 1    
    48   25   26 1    
    49   25   27 1    
    50   25   87 1    
    51   26   88 1    
    52   26   89 1    
    53   26   90 1    
    54   27   28 am   BACKBONE|DICT|INTERRES
    55   27   91 1    
    56   28   29 2    
    57   28   30 1    
    58   30   31 1    
    59   30   32 1    
    60   30   92 1    
    61   31   93 1    
    62   31   94 1    
    63   31   95 1    
    64   32   33 am   BACKBONE|DICT|INTERRES
    65   32   96 1    
    66   33   34 2    
    67   33   35 1    
    68   35   36 1    
    69   35   37 1    
    70   35   97 1    
    71   36   98 1    
    72   36   99 1    
    73   36  100 1    
    74   37   38 am   BACKBONE|DICT|INTERRES
    75   37  101 1    
    76   38   39 2    
    77   38   40 1    
    78   40   41 1    
    79   40   42 1    
    80   40  102 1    
    81   41  103 1    
    82   41  104 1    
    83   41  105 1    
    84   42   43 am   BACKBONE|DICT|INTERRES
    85   42  106 1    
    86   43   44 2    
    87   43   45 1    
    88   45   46 1    
    89   45   49 1    
    90   45  107 1    
    91   46   47 1    
    92   46  108 1    
    93   46  109 1    
    94   47   48 1    
    95   48  110 1    
    96   48  111 1    
    97   49   50 am   BACKBONE|DICT|INTERRES
    98   49  112 1    
    99   50   51 2    
   100   50   52 1    
   101   52   53 1    
   102   52   54 1    
   103   52  113 1    
   104   53  114 1    
   105   53  115 1    
   106   53  116 1    
   107   54   55 am   BACKBONE|DICT|INTERRES
   108   54  117 1    
   109   55   56 2    
   110   55   57 1    
   111   57   58 1    
   112   57   59 1    
   113   57  118 1    
   114   58  119 1    
   115   58  120 1    
   116   58  121 1    
   117   59   60 am   BACKBONE|DICT|INTERRES
   118   59  122 1    
   119   60   61 2    
   120   60   62 1    
   121   62   63 1    
   122   62   64 1    
   123   62  123 1    
   124   63  124 1    
   125   63  125 1    
   126   63  126 1    
   127   64   65 am   BACKBONE|DICT|INTERRES
   128   64  127 1    
   129   65   66 2    
@<TRIPOS>SUBSTRUCTURE
     1 UNK         1 GROUP             0       ****    0 ROOT    
