@<TRIPOS>MOLECULE
3R135
127   129    1
SMALL
USER_CHARGES


@<TRIPOS>ATOM
      1 CA        -84.6987   27.5892  -71.9814 C.3       0 UNK        -0.1998 
      2 C         -83.3010   27.6565  -72.5772 C.2       0 UNK         0.4909 
      3 O         -83.0441   28.4857  -73.4515 O.2       0 UNK        -0.5240 
      4 N         -82.3908   26.7903  -72.1152 N.am      1 UNK        -0.4739 
      5 CA        -81.0028   26.7034  -72.5794 C.3       1 UNK         0.0864 
      6 C6        -80.0533   26.1378  -71.4884 C.3       11 UNK        -0.0881 
      7 S7        -80.1659   26.9277  -69.8430 S.3       11 UNK        -0.2682 
      8 C8        -79.9748   28.7072  -70.1955 C.3       11 UNK         0.0289 
      9 C9        -78.7327   29.0309  -71.0168 C.ar      11 UNK        -0.0687 
     10 C10       -78.8597   29.7270  -72.2224 C.ar      11 UNK        -0.0823 
     11 C11       -77.7343   30.0343  -72.9913 C.ar      11 UNK        -0.0830 
     12 C12       -76.4697   29.6478  -72.5382 C.ar      11 UNK        -0.1021 
     13 C13       -76.3278   28.9529  -71.3339 C.ar      11 UNK        -0.0753 
     14 C14       -77.4610   28.6532  -70.5724 C.ar      11 UNK        -0.0933 
     15 C15       -74.9466   28.5225  -70.8715 C.3       11 UNK         0.0166 
     16 S16       -74.0447   29.9188  -70.1336 S.3       11 UNK        -0.2615 
     17 C17       -72.3146   29.4172  -70.4262 C.3       11 UNK        -0.0865 
     18 CA        -71.6939   30.1513  -71.6433 C.3       10 UNK         0.0862 
     19 C         -70.1710   29.8645  -71.7404 C.2       10 UNK         0.5551 
     20 N         -69.3465   30.6761  -71.0931 N.am      10 UNK        -0.7319 
     21 O         -69.7363   28.8939  -72.3581 O.2       10 UNK        -0.5018 
     22 N         -72.3929   29.8094  -72.8887 N.am      10 UNK        -0.4509 
     23 C         -72.3013   30.4804  -74.0400 C.2       10 UNK         0.4899 
     24 O         -71.6864   31.5401  -74.1716 O.2       10 UNK        -0.4839 
     25 CA        -72.9984   29.8290  -75.2498 C.3       9 UNK         0.0222 
     26 CB        -73.0397   30.7505  -76.4824 C.3       9 UNK        -0.1966 
     27 N         -72.3530   28.5650  -75.6154 N.am      9 UNK        -0.4218 
     28 C         -72.5175   27.4050  -74.9678 C.2       9 UNK         0.5020 
     29 O         -73.2509   27.2720  -73.9861 O.2       9 UNK        -0.5274 
     30 CA        -71.7128   26.2070  -75.4801 C.3       8 UNK         0.0270 
     31 CB        -70.9145   25.5400  -74.3436 C.3       8 UNK        -0.1976 
     32 N         -72.6212   25.2418  -76.0949 N.am      8 UNK        -0.4313 
     33 C         -72.2698   24.3790  -77.0577 C.2       8 UNK         0.5041 
     34 O         -71.1285   24.2942  -77.5148 O.2       8 UNK        -0.5577 
     35 CA        -73.3658   23.4575  -77.6212 C.3       7 UNK         0.0284 
     36 CB        -73.7049   22.3300  -76.6324 C.3       7 UNK        -0.1958 
     37 N         -74.5805   24.1858  -77.9904 N.am      7 UNK        -0.4454 
     38 C         -74.6740   25.0359  -79.0239 C.2       7 UNK         0.5089 
     39 O         -73.7651   25.2415  -79.8289 O.2       7 UNK        -0.5125 
     40 CA        -76.0002   25.8052  -79.1783 C.3       6 UNK         0.0408 
     41 CB        -77.0217   24.9864  -79.9822 C.3       6 UNK        -0.1791 
     42 N         -76.5788   26.1998  -77.8913 N.am      6 UNK        -0.4762 
     43 C         -75.9982   27.0563  -77.0363 C.2       6 UNK         0.5007 
     44 O         -74.9574   27.6625  -77.2863 O.2       6 UNK        -0.5032 
     45 CA        -76.6739   27.2300  -75.6604 C.3       5 UNK         0.0783 
     46 C46       -77.7843   28.3103  -75.7097 C.3       11 UNK        -0.0857 
     47 S47       -77.0770   29.9951  -75.7184 S.3       11 UNK        -0.2512 
     48 C48       -77.8989   30.7955  -74.3016 C.3       11 UNK         0.0225 
     49 N         -77.1698   25.9460  -75.1517 N.am      5 UNK        -0.4615 
     50 C         -76.3801   24.9299  -74.7717 C.2       4 UNK         0.5053 
     51 O         -75.1528   24.9889  -74.7529 O.2       4 UNK        -0.5105 
     52 CA        -77.0617   23.5973  -74.4221 C.3       4 UNK         0.0263 
     53 CB        -77.4396   23.5360  -72.9359 C.3       4 UNK        -0.1981 
     54 N         -78.2367   23.3452  -75.2592 N.am      4 UNK        -0.4224 
     55 C         -78.1494   23.0154  -76.5568 C.2       3 UNK         0.4895 
     56 O         -77.0797   22.8332  -77.1374 O.2       3 UNK        -0.5091 
     57 CA        -79.4564   22.9069  -77.3612 C.3       3 UNK         0.0250 
     58 CB        -79.9729   21.4598  -77.3503 C.3       3 UNK        -0.1996 
     59 N         -80.5194   23.8057  -76.9056 N.am      3 UNK        -0.4254 
     60 C         -80.4433   25.1434  -76.8577 C.2       2 UNK         0.5004 
     61 O         -79.4447   25.7819  -77.1922 O.2       2 UNK        -0.5226 
     62 CA        -81.6707   25.8984  -76.3094 C.3       2 UNK         0.0269 
     63 CB        -82.9617   25.0493  -76.2792 C.3       2 UNK        -0.1926 
     64 N         -81.4444   26.4873  -74.9822 N.am      2 UNK        -0.4687 
     65 C         -80.9419   25.8893  -73.8908 C.2       1 UNK         0.5165 
     66 O         -80.4948   24.7402  -73.8833 O.2       1 UNK        -0.5079 
     67 H67       -85.4274   27.3652  -72.7599 H         1 UNK         0.0900 
     68 H68       -84.9613   28.5470  -71.5332 H         1 UNK         0.0900 
     69 H69       -84.7768   26.8217  -71.2116 H         1 UNK         0.0900 
     70 H70       -82.6526   26.1221  -71.4040 H         1 UNK         0.2959 
     71 H71       -80.6554   27.7068  -72.8257 H         1 UNK         0.1079 
     72 H72       -80.2346   25.0722  -71.3348 H         1 UNK         0.0837 
     73 H73       -79.0184   26.2263  -71.8223 H         1 UNK         0.0837 
     74 H74       -80.8777   29.0632  -70.6940 H         1 UNK         0.0685 
     75 H75       -79.9193   29.2460  -69.2488 H         1 UNK         0.0685 
     76 H76       -79.8397   30.0332  -72.5632 H         1 UNK         0.1434 
     77 H77       -75.5928   29.8865  -73.1233 H         1 UNK         0.1329 
     78 H78       -77.3572   28.1187  -69.6380 H         1 UNK         0.1335 
     79 H79       -75.0133   27.7116  -70.1446 H         1 UNK         0.0680 
     80 H80       -74.3972   28.1245  -71.7246 H         1 UNK         0.0680 
     81 H81       -71.7540   29.6491  -69.5185 H         1 UNK         0.1032 
     82 H82       -72.2505   28.3340  -70.5479 H         1 UNK         0.1032 
     83 H83       -71.8189   31.2250  -71.4867 H         1 UNK         0.0461 
     84 H84       -69.6936   31.4696  -70.5767 H         1 UNK         0.3453 
     85 H85       -68.3548   30.4984  -71.1302 H         1 UNK         0.3453 
     86 H86       -72.8433   28.9006  -72.9203 H         1 UNK         0.2984 
     87 H87       -74.0316   29.6228  -74.9636 H         1 UNK         0.0554 
     88 H88       -73.5363   31.6927  -76.2468 H         1 UNK         0.0847 
     89 H89       -73.5969   30.2898  -77.2987 H         1 UNK         0.0847 
     90 H90       -72.0400   30.9890  -76.8475 H         1 UNK         0.0847 
     91 H91       -71.7213   28.5962  -76.4026 H         1 UNK         0.3141 
     92 H92       -71.0058   26.5650  -76.2319 H         1 UNK         0.0743 
     93 H93       -71.5743   25.1105  -73.5885 H         1 UNK         0.0784 
     94 H94       -70.2743   24.7427  -74.7213 H         1 UNK         0.0784 
     95 H95       -70.2711   26.2644  -73.8420 H         1 UNK         0.0784 
     96 H96       -73.5755   25.2430  -75.7325 H         1 UNK         0.3213 
     97 H97       -72.9716   22.9935  -78.5281 H         1 UNK         0.0855 
     98 H98       -74.0992   22.7156  -75.6927 H         1 UNK         0.0814 
     99 H99       -72.8170   21.7429  -76.3944 H         1 UNK         0.0814 
    100 H100      -74.4443   21.6458  -77.0492 H         1 UNK         0.0814 
    101 H101      -75.4087   24.0141  -77.4308 H         1 UNK         0.3105 
    102 H102      -75.7903   26.7201  -79.7363 H         1 UNK         0.0547 
    103 H103      -76.6454   24.7768  -80.9842 H         1 UNK         0.0837 
    104 H104      -77.2340   24.0273  -79.5116 H         1 UNK         0.0837 
    105 H105      -77.9641   25.5227  -80.0947 H         1 UNK         0.0837 
    106 H106      -77.4761   25.7978  -77.6364 H         1 UNK         0.3020 
    107 H107      -75.9005   27.5626  -74.9625 H         1 UNK         0.1245 
    108 H108      -78.4456   28.2041  -74.8495 H         1 UNK         0.0781 
    109 H109      -78.4248   28.1905  -76.5854 H         1 UNK         0.0781 
    110 H110      -78.9545   30.9247  -74.5462 H         1 UNK         0.0836 
    111 H111      -77.4883   31.7985  -74.1788 H         1 UNK         0.0836 
    112 H112      -78.1642   25.7858  -75.2284 H         1 UNK         0.3022 
    113 H113      -76.3375   22.8008  -74.6064 H         1 UNK         0.0747 
    114 H114      -77.8533   22.5626  -72.6720 H         1 UNK         0.0793 
    115 H115      -76.5654   23.7004  -72.3044 H         1 UNK         0.0793 
    116 H116      -78.1755   24.2925  -72.6760 H         1 UNK         0.0793 
    117 H117      -79.1470   23.5353  -74.8504 H         1 UNK         0.3047 
    118 H118      -79.2255   23.1776  -78.3931 H         1 UNK         0.0822 
    119 H119      -80.8415   21.3423  -77.9986 H         1 UNK         0.0807 
    120 H120      -80.2551   21.1389  -76.3467 H         1 UNK         0.0807 
    121 H121      -79.2077   20.7700  -77.7100 H         1 UNK         0.0807 
    122 H122      -81.3693   23.3699  -76.5783 H         1 UNK         0.2946 
    123 H123      -81.8378   26.7291  -76.9972 H         1 UNK         0.1144 
    124 H124      -83.8222   25.6632  -76.0118 H         1 UNK         0.0793 
    125 H125      -82.9059   24.2366  -75.5538 H         1 UNK         0.0793 
    126 H126      -83.1758   24.6149  -77.2569 H         1 UNK         0.0793 
    127 H127      -81.8205   27.4205  -74.8524 H         1 UNK         0.2896 
@<TRIPOS>BOND
     1    1    2 1    
     2    1   67 1    
     3    1   68 1    
     4    1   69 1    
     5    2    3 2    
     6    2    4 am   BACKBONE|DICT|INTERRES
     7    4    5 1    
     8    4   70 1    
     9    5    6 1    
    10    5   65 1    
    11    5   71 1    
    12    6    7 1    
    13    6   72 1    
    14    6   73 1    
    15    7    8 1    
    16    8    9 1    
    17    8   74 1    
    18    8   75 1    
    19    9   10 ar   
    20    9   14 ar   
    21   10   11 ar   
    22   10   76 1    
    23   11   12 ar   
    24   11   48 1    
    25   12   13 ar   
    26   12   77 1    
    27   13   14 ar   
    28   13   15 1    
    29   14   78 1    
    30   15   16 1    
    31   15   79 1    
    32   15   80 1    
    33   16   17 1    
    34   17   18 1    
    35   17   81 1    
    36   17   82 1    
    37   18   19 1    
    38   18   22 1    
    39   18   83 1    
    40   19   20 am   BACKBONE|DICT|INTERRES
    41   19   21 2    
    42   20   84 1    
    43   20   85 1    
    44   22   23 am   BACKBONE|DICT|INTERRES
    45   22   86 1    
    46   23   24 2    
    47   23   25 1    
    48   25   26 1    
    49   25   27 1    
    50   25   87 1    
    51   26   88 1    
    52   26   89 1    
    53   26   90 1    
    54   27   28 am   BACKBONE|DICT|INTERRES
    55   27   91 1    
    56   28   29 2    
    57   28   30 1    
    58   30   31 1    
    59   30   32 1    
    60   30   92 1    
    61   31   93 1    
    62   31   94 1    
    63   31   95 1    
    64   32   33 am   BACKBONE|DICT|INTERRES
    65   32   96 1    
    66   33   34 2    
    67   33   35 1    
    68   35   36 1    
    69   35   37 1    
    70   35   97 1    
    71   36   98 1    
    72   36   99 1    
    73   36  100 1    
    74   37   38 am   BACKBONE|DICT|INTERRES
    75   37  101 1    
    76   38   39 2    
    77   38   40 1    
    78   40   41 1    
    79   40   42 1    
    80   40  102 1    
    81   41  103 1    
    82   41  104 1    
    83   41  105 1    
    84   42   43 am   BACKBONE|DICT|INTERRES
    85   42  106 1    
    86   43   44 2    
    87   43   45 1    
    88   45   46 1    
    89   45   49 1    
    90   45  107 1    
    91   46   47 1    
    92   46  108 1    
    93   46  109 1    
    94   47   48 1    
    95   48  110 1    
    96   48  111 1    
    97   49   50 am   BACKBONE|DICT|INTERRES
    98   49  112 1    
    99   50   51 2    
   100   50   52 1    
   101   52   53 1    
   102   52   54 1    
   103   52  113 1    
   104   53  114 1    
   105   53  115 1    
   106   53  116 1    
   107   54   55 am   BACKBONE|DICT|INTERRES
   108   54  117 1    
   109   55   56 2    
   110   55   57 1    
   111   57   58 1    
   112   57   59 1    
   113   57  118 1    
   114   58  119 1    
   115   58  120 1    
   116   58  121 1    
   117   59   60 am   BACKBONE|DICT|INTERRES
   118   59  122 1    
   119   60   61 2    
   120   60   62 1    
   121   62   63 1    
   122   62   64 1    
   123   62  123 1    
   124   63  124 1    
   125   63  125 1    
   126   63  126 1    
   127   64   65 am   BACKBONE|DICT|INTERRES
   128   64  127 1    
   129   65   66 2    
@<TRIPOS>SUBSTRUCTURE
     1 UNK         1 GROUP             0       ****    0 ROOT    
