@<TRIPOS>MOLECULE
3R135
127   129    1
SMALL
USER_CHARGES


@<TRIPOS>ATOM
      1 CA        -81.7849   21.4319  -71.6049 C.3       0 UNK        -0.1998 
      2 C         -82.4440   22.7806  -71.8492 C.2       0 UNK         0.4909 
      3 O         -83.5680   22.8344  -72.3511 O.2       0 UNK        -0.5240 
      4 N         -81.7548   23.8740  -71.5013 N.am      1 UNK        -0.4739 
      5 CA        -82.1829   25.2634  -71.6995 C.3       1 UNK         0.0864 
      6 C6        -81.5242   26.2236  -70.6691 C.3       11 UNK        -0.0881 
      7 S7        -79.7184   26.0150  -70.4476 S.3       11 UNK        -0.2682 
      8 C8        -79.2585   27.6188  -69.7148 C.3       11 UNK         0.0289 
      9 C9        -78.5905   28.5497  -70.7196 C.ar      11 UNK        -0.0687 
     10 C10       -79.3058   29.0496  -71.8119 C.ar      11 UNK        -0.0823 
     11 C11       -78.6998   29.9202  -72.7225 C.ar      11 UNK        -0.0830 
     12 C12       -77.3721   30.3074  -72.5283 C.ar      11 UNK        -0.1021 
     13 C13       -76.6443   29.8113  -71.4440 C.ar      11 UNK        -0.0753 
     14 C14       -77.2563   28.9323  -70.5446 C.ar      11 UNK        -0.0933 
     15 C15       -75.1955   30.2225  -71.2482 C.3       11 UNK         0.0166 
     16 S16       -74.0836   29.0864  -72.1253 S.3       11 UNK        -0.2615 
     17 C17       -72.4559   29.8010  -71.7065 C.3       11 UNK        -0.0865 
     18 CA        -71.7625   30.4968  -72.9078 C.3       10 UNK         0.0862 
     19 C         -70.4000   31.0997  -72.4559 C.2       10 UNK         0.5551 
     20 N         -69.2645   30.5138  -72.8172 N.am      10 UNK        -0.7319 
     21 O         -70.3787   32.1130  -71.7617 O.2       10 UNK        -0.5018 
     22 N         -71.6907   29.5969  -74.0681 N.am      10 UNK        -0.4509 
     23 C         -71.2938   29.9111  -75.3069 C.2       10 UNK         0.4899 
     24 O         -70.9669   31.0484  -75.6484 O.2       10 UNK        -0.4839 
     25 CA        -71.2698   28.7770  -76.3546 C.3       9 UNK         0.0222 
     26 CB        -69.9058   28.6886  -77.0693 C.3       9 UNK        -0.1966 
     27 N         -71.6883   27.4587  -75.8514 N.am      9 UNK        -0.4218 
     28 C         -71.0821   26.6743  -74.9452 C.2       9 UNK         0.5020 
     29 O         -70.0267   26.9639  -74.3813 O.2       9 UNK        -0.5274 
     30 CA        -71.7969   25.3669  -74.5621 C.3       8 UNK         0.0270 
     31 CB        -72.4836   25.5170  -73.1942 C.3       8 UNK        -0.1976 
     32 N         -72.7888   24.9608  -75.5629 N.am      8 UNK        -0.4313 
     33 C         -72.4902   24.2430  -76.6552 C.2       8 UNK         0.5041 
     34 O         -71.3722   23.7791  -76.8846 O.2       8 UNK        -0.5577 
     35 CA        -73.6144   24.0219  -77.6807 C.3       7 UNK         0.0284 
     36 CB        -74.5399   22.8761  -77.2445 C.3       7 UNK        -0.1958 
     37 N         -74.4024   25.2281  -77.9504 N.am      7 UNK        -0.4454 
     38 C         -73.9206   26.3294  -78.5470 C.2       7 UNK         0.5089 
     39 O         -72.7466   26.4681  -78.8878 O.2       7 UNK        -0.5125 
     40 CA        -74.9086   27.4730  -78.8098 C.3       6 UNK         0.0408 
     41 CB        -75.6930   27.2158  -80.1063 C.3       6 UNK        -0.1791 
     42 N         -75.8469   27.6371  -77.7032 N.am      6 UNK        -0.4762 
     43 C         -75.6584   28.4444  -76.6493 C.2       6 UNK         0.5007 
     44 O         -74.6698   29.1607  -76.4954 O.2       6 UNK        -0.5032 
     45 CA        -76.7813   28.4439  -75.5915 C.3       5 UNK         0.0783 
     46 C46       -77.9111   29.4099  -76.0560 C.3       11 UNK        -0.0857 
     47 S47       -79.5332   29.1904  -75.2445 S.3       11 UNK        -0.2512 
     48 C48       -79.4849   30.4321  -73.9178 C.3       11 UNK         0.0225 
     49 N         -77.2732   27.0947  -75.2955 N.am      5 UNK        -0.4615 
     50 C         -76.5388   26.0324  -74.9348 C.2       4 UNK         0.5053 
     51 O         -75.3155   26.0407  -74.8022 O.2       4 UNK        -0.5105 
     52 CA        -77.2979   24.7075  -74.7674 C.3       4 UNK         0.0263 
     53 CB        -77.8772   24.6057  -73.3489 C.3       4 UNK        -0.1981 
     54 N         -78.3785   24.5160  -75.7390 N.am      4 UNK        -0.4224 
     55 C         -78.3192   24.6527  -77.0711 C.2       3 UNK         0.4895 
     56 O         -77.2902   24.9444  -77.6841 O.2       3 UNK        -0.5091 
     57 CA        -79.6353   24.4905  -77.8577 C.3       3 UNK         0.0250 
     58 CB        -79.7945   23.0446  -78.3659 C.3       3 UNK        -0.1996 
     59 N         -80.8468   24.9574  -77.1554 N.am      3 UNK        -0.4254 
     60 C         -81.4144   24.4625  -76.0450 C.2       2 UNK         0.5004 
     61 O         -80.9875   23.4784  -75.4355 O.2       2 UNK        -0.5226 
     62 CA        -82.6593   25.1967  -75.5218 C.3       2 UNK         0.0269 
     63 CB        -83.9309   24.6352  -76.1777 C.3       2 UNK        -0.1926 
     64 N         -82.7716   25.0543  -74.0694 N.am      2 UNK        -0.4687 
     65 C         -82.0107   25.6971  -73.1739 C.2       1 UNK         0.5165 
     66 O         -81.2040   26.5744  -73.4821 O.2       1 UNK        -0.5079 
     67 H67       -82.4124   20.8184  -70.9590 H         1 UNK         0.0900 
     68 H68       -80.8088   21.5355  -71.1314 H         1 UNK         0.0900 
     69 H69       -81.6495   20.9063  -72.5499 H         1 UNK         0.0900 
     70 H70       -80.8273   23.7767  -71.1112 H         1 UNK         0.2959 
     71 H71       -83.2581   25.3097  -71.5100 H         1 UNK         0.1079 
     72 H72       -81.7532   27.2613  -70.9160 H         1 UNK         0.0837 
     73 H73       -81.9819   26.0562  -69.6929 H         1 UNK         0.0837 
     74 H74       -80.1356   28.1091  -69.2904 H         1 UNK         0.0685 
     75 H75       -78.5891   27.4257  -68.8752 H         1 UNK         0.0685 
     76 H76       -80.3319   28.7480  -71.9675 H         1 UNK         0.1434 
     77 H77       -76.8983   30.9813  -73.2291 H         1 UNK         0.1329 
     78 H78       -76.6906   28.5484  -69.7066 H         1 UNK         0.1335 
     79 H79       -75.0383   31.2391  -71.6126 H         1 UNK         0.0680 
     80 H80       -74.9480   30.2292  -70.1854 H         1 UNK         0.0680 
     81 H81       -72.5704   30.5005  -70.8760 H         1 UNK         0.1032 
     82 H82       -71.8283   28.9921  -71.3270 H         1 UNK         0.1032 
     83 H83       -72.3866   31.3402  -73.2089 H         1 UNK         0.0461 
     84 H84       -68.3856   30.9089  -72.5226 H         1 UNK         0.3453 
     85 H85       -69.2826   29.6767  -73.3793 H         1 UNK         0.3453 
     86 H86       -71.9535   28.6402  -73.8894 H         1 UNK         0.2984 
     87 H87       -72.0111   29.0503  -77.1065 H         1 UNK         0.0554 
     88 H88       -69.9108   27.9122  -77.8346 H         1 UNK         0.0847 
     89 H89       -69.0940   28.4718  -76.3746 H         1 UNK         0.0847 
     90 H90       -69.6626   29.6287  -77.5659 H         1 UNK         0.0847 
     91 H91       -72.5622   27.1225  -76.2302 H         1 UNK         0.3141 
     92 H92       -71.0353   24.5895  -74.4705 H         1 UNK         0.0743 
     93 H93       -73.2267   26.3148  -73.1979 H         1 UNK         0.0784 
     94 H94       -72.9848   24.5954  -72.8981 H         1 UNK         0.0784 
     95 H95       -71.7569   25.7555  -72.4164 H         1 UNK         0.0784 
     96 H96       -73.7418   25.2956  -75.4205 H         1 UNK         0.3213 
     97 H97       -73.1437   23.7278  -78.6215 H         1 UNK         0.0855 
     98 H98       -75.0160   23.0844  -76.2882 H         1 UNK         0.0814 
     99 H99       -73.9799   21.9469  -77.1315 H         1 UNK         0.0814 
    100 H100      -75.3251   22.6949  -77.9789 H         1 UNK         0.0814 
    101 H101      -75.3966   25.1839  -77.7405 H         1 UNK         0.3105 
    102 H102      -74.3342   28.3927  -78.9414 H         1 UNK         0.0547 
    103 H103      -75.0167   27.0982  -80.9541 H         1 UNK         0.0837 
    104 H104      -76.2976   26.3099  -80.0432 H         1 UNK         0.0837 
    105 H105      -76.3590   28.0471  -80.3373 H         1 UNK         0.0837 
    106 H106      -76.6586   27.0307  -77.7056 H         1 UNK         0.3020 
    107 H107      -76.3493   28.8234  -74.6637 H         1 UNK         0.1245 
    108 H108      -78.1089   29.2851  -77.1230 H         1 UNK         0.0781 
    109 H109      -77.5852   30.4453  -75.9422 H         1 UNK         0.0781 
    110 H110      -80.5077   30.6549  -73.6102 H         1 UNK         0.0836 
    111 H111      -79.0704   31.3697  -74.2910 H         1 UNK         0.0836 
    112 H112      -78.2758   26.9834  -75.3485 H         1 UNK         0.3022 
    113 H113      -76.5872   23.8930  -74.9023 H         1 UNK         0.0747 
    114 H114      -78.3451   23.6364  -73.1762 H         1 UNK         0.0793 
    115 H115      -77.0983   24.7305  -72.5953 H         1 UNK         0.0793 
    116 H116      -78.6288   25.3760  -73.1706 H         1 UNK         0.0793 
    117 H117      -79.2743   24.2136  -75.3642 H         1 UNK         0.3047 
    118 H118      -79.5422   25.1330  -78.7348 H         1 UNK         0.0822 
    119 H119      -80.6852   22.9378  -78.9850 H         1 UNK         0.0807 
    120 H120      -79.8664   22.3275  -77.5477 H         1 UNK         0.0807 
    121 H121      -78.9388   22.7520  -78.9759 H         1 UNK         0.0807 
    122 H122      -81.2719   25.7791  -77.5635 H         1 UNK         0.2946 
    123 H123      -82.5716   26.2592  -75.7617 H         1 UNK         0.1144 
    124 H124      -84.0607   23.5739  -75.9606 H         1 UNK         0.0793 
    125 H125      -83.8946   24.7444  -77.2625 H         1 UNK         0.0793 
    126 H126      -84.8212   25.1596  -75.8300 H         1 UNK         0.0793 
    127 H127      -83.3321   24.2803  -73.7267 H         1 UNK         0.2896 
@<TRIPOS>BOND
     1    1    2 1    
     2    1   67 1    
     3    1   68 1    
     4    1   69 1    
     5    2    3 2    
     6    2    4 am   BACKBONE|DICT|INTERRES
     7    4    5 1    
     8    4   70 1    
     9    5    6 1    
    10    5   65 1    
    11    5   71 1    
    12    6    7 1    
    13    6   72 1    
    14    6   73 1    
    15    7    8 1    
    16    8    9 1    
    17    8   74 1    
    18    8   75 1    
    19    9   10 ar   
    20    9   14 ar   
    21   10   11 ar   
    22   10   76 1    
    23   11   12 ar   
    24   11   48 1    
    25   12   13 ar   
    26   12   77 1    
    27   13   14 ar   
    28   13   15 1    
    29   14   78 1    
    30   15   16 1    
    31   15   79 1    
    32   15   80 1    
    33   16   17 1    
    34   17   18 1    
    35   17   81 1    
    36   17   82 1    
    37   18   19 1    
    38   18   22 1    
    39   18   83 1    
    40   19   20 am   BACKBONE|DICT|INTERRES
    41   19   21 2    
    42   20   84 1    
    43   20   85 1    
    44   22   23 am   BACKBONE|DICT|INTERRES
    45   22   86 1    
    46   23   24 2    
    47   23   25 1    
    48   25   26 1    
    49   25   27 1    
    50   25   87 1    
    51   26   88 1    
    52   26   89 1    
    53   26   90 1    
    54   27   28 am   BACKBONE|DICT|INTERRES
    55   27   91 1    
    56   28   29 2    
    57   28   30 1    
    58   30   31 1    
    59   30   32 1    
    60   30   92 1    
    61   31   93 1    
    62   31   94 1    
    63   31   95 1    
    64   32   33 am   BACKBONE|DICT|INTERRES
    65   32   96 1    
    66   33   34 2    
    67   33   35 1    
    68   35   36 1    
    69   35   37 1    
    70   35   97 1    
    71   36   98 1    
    72   36   99 1    
    73   36  100 1    
    74   37   38 am   BACKBONE|DICT|INTERRES
    75   37  101 1    
    76   38   39 2    
    77   38   40 1    
    78   40   41 1    
    79   40   42 1    
    80   40  102 1    
    81   41  103 1    
    82   41  104 1    
    83   41  105 1    
    84   42   43 am   BACKBONE|DICT|INTERRES
    85   42  106 1    
    86   43   44 2    
    87   43   45 1    
    88   45   46 1    
    89   45   49 1    
    90   45  107 1    
    91   46   47 1    
    92   46  108 1    
    93   46  109 1    
    94   47   48 1    
    95   48  110 1    
    96   48  111 1    
    97   49   50 am   BACKBONE|DICT|INTERRES
    98   49  112 1    
    99   50   51 2    
   100   50   52 1    
   101   52   53 1    
   102   52   54 1    
   103   52  113 1    
   104   53  114 1    
   105   53  115 1    
   106   53  116 1    
   107   54   55 am   BACKBONE|DICT|INTERRES
   108   54  117 1    
   109   55   56 2    
   110   55   57 1    
   111   57   58 1    
   112   57   59 1    
   113   57  118 1    
   114   58  119 1    
   115   58  120 1    
   116   58  121 1    
   117   59   60 am   BACKBONE|DICT|INTERRES
   118   59  122 1    
   119   60   61 2    
   120   60   62 1    
   121   62   63 1    
   122   62   64 1    
   123   62  123 1    
   124   63  124 1    
   125   63  125 1    
   126   63  126 1    
   127   64   65 am   BACKBONE|DICT|INTERRES
   128   64  127 1    
   129   65   66 2    
@<TRIPOS>SUBSTRUCTURE
     1 UNK         1 GROUP             0       ****    0 ROOT    
