@<TRIPOS>MOLECULE
3R135
127   129    1
SMALL
USER_CHARGES


@<TRIPOS>ATOM
      1 CA        -85.3686   29.5499  -70.5575 C.3       0 UNK        -0.1998 
      2 C         -84.5635   29.5708  -71.8480 C.2       0 UNK         0.4909 
      3 O         -85.0035   30.1604  -72.8354 O.2       0 UNK        -0.5240 
      4 N         -83.3855   28.9336  -71.8470 N.am      1 UNK        -0.4739 
      5 CA        -82.4905   28.8181  -73.0060 C.3       1 UNK         0.0864 
      6 C6        -81.0650   28.3757  -72.5856 C.3       11 UNK        -0.0881 
      7 S7        -81.0330   26.7871  -71.6755 S.3       11 UNK        -0.2682 
      8 C8        -79.6034   27.0086  -70.5763 C.3       11 UNK         0.0289 
      9 C9        -78.2961   26.7796  -71.3174 C.ar      11 UNK        -0.0687 
     10 C10       -77.7123   25.5091  -71.3363 C.ar      11 UNK        -0.0823 
     11 C11       -76.4966   25.2949  -71.9926 C.ar      11 UNK        -0.0830 
     12 C12       -75.8688   26.3671  -72.6336 C.ar      11 UNK        -0.1021 
     13 C13       -76.4558   27.6343  -72.6461 C.ar      11 UNK        -0.0753 
     14 C14       -77.6644   27.8380  -71.9755 C.ar      11 UNK        -0.0933 
     15 C15       -75.8048   28.7784  -73.4059 C.3       11 UNK         0.0166 
     16 S16       -74.6221   29.6821  -72.3607 S.3       11 UNK        -0.2615 
     17 C17       -74.4766   31.2614  -73.2742 C.3       11 UNK        -0.0865 
     18 CA        -73.1318   31.4519  -74.0242 C.3       10 UNK         0.0862 
     19 C         -71.9459   31.7764  -73.0660 C.2       10 UNK         0.5551 
     20 N         -70.8234   31.0685  -73.1135 N.am      10 UNK        -0.7319 
     21 O         -72.0399   32.7095  -72.2720 O.2       10 UNK        -0.5018 
     22 N         -72.8837   30.3536  -74.9688 N.am      10 UNK        -0.4509 
     23 C         -72.1886   30.4567  -76.1076 C.2       10 UNK         0.4899 
     24 O         -71.7604   31.5227  -76.5531 O.2       10 UNK        -0.4839 
     25 CA        -71.9224   29.1382  -76.8643 C.3       9 UNK         0.0222 
     26 CB        -70.7665   29.2607  -77.8794 C.3       9 UNK        -0.1966 
     27 N         -71.7068   27.9871  -75.9754 N.am      9 UNK        -0.4218 
     28 C         -70.7739   27.8689  -75.0147 C.2       9 UNK         0.5020 
     29 O         -69.9642   28.7498  -74.7246 O.2       9 UNK        -0.5274 
     30 CA        -70.7569   26.5518  -74.2284 C.3       8 UNK         0.0270 
     31 CB        -71.8706   26.5500  -73.1696 C.3       8 UNK        -0.1976 
     32 N         -70.9215   25.4077  -75.1254 N.am      8 UNK        -0.4313 
     33 C         -69.9077   24.7561  -75.7135 C.2       8 UNK         0.5041 
     34 O         -68.7191   24.9876  -75.4880 O.2       8 UNK        -0.5577 
     35 CA        -70.2755   23.6599  -76.7313 C.3       7 UNK         0.0284 
     36 CB        -70.3678   22.2910  -76.0377 C.3       7 UNK        -0.1958 
     37 N         -71.5310   23.9326  -77.4345 N.am      7 UNK        -0.4454 
     38 C         -71.7112   24.9246  -78.3186 C.2       7 UNK         0.5089 
     39 O         -70.8048   25.6491  -78.7271 O.2       7 UNK        -0.5125 
     40 CA        -73.1500   25.1692  -78.8113 C.3       6 UNK         0.0408 
     41 CB        -73.3472   24.5656  -80.2108 C.3       6 UNK        -0.1791 
     42 N         -74.1889   24.6532  -77.9100 N.am      6 UNK        -0.4762 
     43 C         -74.4222   25.1018  -76.6680 C.2       6 UNK         0.5007 
     44 O         -73.7524   25.9850  -76.1236 O.2       6 UNK        -0.5032 
     45 CA        -75.5458   24.4039  -75.8749 C.3       5 UNK         0.0783 
     46 C46       -74.9432   23.6567  -74.6546 C.3       11 UNK        -0.0857 
     47 S47       -76.1934   22.9742  -73.5091 S.3       11 UNK        -0.2512 
     48 C48       -75.8544   23.9131  -71.9817 C.3       11 UNK         0.0225 
     49 N         -76.6212   25.3231  -75.4941 N.am      5 UNK        -0.4615 
     50 C         -77.3608   26.0744  -76.3188 C.2       4 UNK         0.5053 
     51 O         -77.1564   26.1820  -77.5292 O.2       4 UNK        -0.5105 
     52 CA        -78.5819   26.7605  -75.6720 C.3       4 UNK         0.0263 
     53 CB        -79.3804   27.6248  -76.6690 C.3       4 UNK        -0.1981 
     54 N         -79.4771   25.8074  -74.9952 N.am      4 UNK        -0.4224 
     55 C         -80.0236   24.6940  -75.5166 C.2       3 UNK         0.4895 
     56 O         -79.8410   24.2954  -76.6671 O.2       3 UNK        -0.5091 
     57 CA        -80.9596   23.8978  -74.5957 C.3       3 UNK         0.0250 
     58 CB        -80.2447   23.4192  -73.3195 C.3       3 UNK        -0.1996 
     59 N         -82.1437   24.6865  -74.2521 N.am      3 UNK        -0.4254 
     60 C         -83.2007   24.8568  -75.0623 C.2       2 UNK         0.5004 
     61 O         -83.3267   24.2985  -76.1527 O.2       2 UNK        -0.5226 
     62 CA        -84.3131   25.8070  -74.5801 C.3       2 UNK         0.0269 
     63 CB        -85.4156   25.0229  -73.8502 C.3       2 UNK        -0.1926 
     64 N         -83.8170   26.8698  -73.7034 N.am      2 UNK        -0.4687 
     65 C         -83.0501   27.8933  -74.1077 C.2       1 UNK         0.5165 
     66 O         -82.7632   28.1074  -75.2856 O.2       1 UNK        -0.5079 
     67 H67       -84.8568   29.0022  -69.7663 H         1 UNK         0.0900 
     68 H68       -86.3357   29.0771  -70.7265 H         1 UNK         0.0900 
     69 H69       -85.5427   30.5671  -70.2075 H         1 UNK         0.0900 
     70 H70       -83.0680   28.4663  -71.0088 H         1 UNK         0.2959 
     71 H71       -82.4075   29.8110  -73.4545 H         1 UNK         0.1079 
     72 H72       -80.4090   28.3019  -73.4550 H         1 UNK         0.0837 
     73 H73       -80.6291   29.1530  -71.9564 H         1 UNK         0.0837 
     74 H74       -79.6226   28.0023  -70.1263 H         1 UNK         0.0685 
     75 H75       -79.6877   26.3022  -69.7491 H         1 UNK         0.0685 
     76 H76       -78.2017   24.6880  -70.8301 H         1 UNK         0.1434 
     77 H77       -74.9303   26.2155  -73.1416 H         1 UNK         0.1329 
     78 H78       -78.1147   28.8210  -71.9691 H         1 UNK         0.1335 
     79 H79       -75.2930   28.4005  -74.2927 H         1 UNK         0.0680 
     80 H80       -76.5802   29.4572  -73.7641 H         1 UNK         0.0680 
     81 H81       -75.2948   31.3463  -73.9902 H         1 UNK         0.1032 
     82 H82       -74.6405   32.0787  -72.5692 H         1 UNK         0.1032 
     83 H83       -73.2512   32.3604  -74.6178 H         1 UNK         0.0461 
     84 H84       -70.0711   31.3064  -72.4874 H         1 UNK         0.3453 
     85 H85       -70.6999   30.3097  -73.7755 H         1 UNK         0.3453 
     86 H86       -73.1726   29.4385  -74.6582 H         1 UNK         0.2984 
     87 H87       -72.8326   28.9204  -77.4248 H         1 UNK         0.0554 
     88 H88       -70.6120   28.3275  -78.4200 H         1 UNK         0.0847 
     89 H89       -69.8273   29.5241  -77.3918 H         1 UNK         0.0847 
     90 H90       -70.9752   30.0312  -78.6224 H         1 UNK         0.0847 
     91 H91       -72.3759   27.2274  -76.0852 H         1 UNK         0.3141 
     92 H92       -69.7991   26.4768  -73.7087 H         1 UNK         0.0743 
     93 H93       -71.7254   27.3576  -72.4506 H         1 UNK         0.0784 
     94 H94       -72.8498   26.6946  -73.6221 H         1 UNK         0.0784 
     95 H95       -71.8900   25.6147  -72.6099 H         1 UNK         0.0784 
     96 H96       -71.8672   25.1855  -75.4069 H         1 UNK         0.3213 
     97 H97       -69.4743   23.6161  -77.4727 H         1 UNK         0.0855 
     98 H98       -71.1632   22.2662  -75.2916 H         1 UNK         0.0814 
     99 H99       -69.4346   22.0510  -75.5259 H         1 UNK         0.0814 
    100 H100      -70.5544   21.4928  -76.7564 H         1 UNK         0.0814 
    101 H101      -72.3278   23.3622  -77.1936 H         1 UNK         0.3105 
    102 H102      -73.2849   26.2506  -78.8852 H         1 UNK         0.0547 
    103 H103      -72.6070   24.9549  -80.9115 H         1 UNK         0.0837 
    104 H104      -73.2462   23.4796  -80.2016 H         1 UNK         0.0837 
    105 H105      -74.3299   24.8099  -80.6144 H         1 UNK         0.0837 
    106 H106      -74.7865   23.9314  -78.2882 H         1 UNK         0.3020 
    107 H107      -76.0105   23.6565  -76.5214 H         1 UNK         0.1245 
    108 H108      -74.2601   24.2975  -74.0961 H         1 UNK         0.0781 
    109 H109      -74.3316   22.8216  -75.0013 H         1 UNK         0.0781 
    110 H110      -74.7785   23.9975  -71.8215 H         1 UNK         0.0836 
    111 H111      -76.2327   23.3368  -71.1360 H         1 UNK         0.0836 
    112 H112      -76.8732   25.2974  -74.5157 H         1 UNK         0.3022 
    113 H113      -78.1922   27.4277  -74.9033 H         1 UNK         0.0747 
    114 H114      -80.1878   28.1601  -76.1705 H         1 UNK         0.0793 
    115 H115      -78.7405   28.3718  -77.1402 H         1 UNK         0.0793 
    116 H116      -79.8204   27.0223  -77.4645 H         1 UNK         0.0793 
    117 H117      -79.6844   26.0185  -74.0291 H         1 UNK         0.3047 
    118 H118      -81.2803   23.0070  -75.1410 H         1 UNK         0.0822 
    119 H119      -79.3542   22.8398  -73.5673 H         1 UNK         0.0807 
    120 H120      -80.8923   22.7754  -72.7242 H         1 UNK         0.0807 
    121 H121      -79.9274   24.2451  -72.6856 H         1 UNK         0.0807 
    122 H122      -82.1210   25.1957  -73.3793 H         1 UNK         0.2946 
    123 H123      -84.7507   26.2722  -75.4666 H         1 UNK         0.1144 
    124 H124      -85.8238   24.2383  -74.4891 H         1 UNK         0.0793 
    125 H125      -86.2444   25.6727  -73.5684 H         1 UNK         0.0793 
    126 H126      -85.0403   24.5436  -72.9450 H         1 UNK         0.0793 
    127 H127      -84.0073   26.7811  -72.7155 H         1 UNK         0.2896 
@<TRIPOS>BOND
     1    1    2 1    
     2    1   67 1    
     3    1   68 1    
     4    1   69 1    
     5    2    3 2    
     6    2    4 am   BACKBONE|DICT|INTERRES
     7    4    5 1    
     8    4   70 1    
     9    5    6 1    
    10    5   65 1    
    11    5   71 1    
    12    6    7 1    
    13    6   72 1    
    14    6   73 1    
    15    7    8 1    
    16    8    9 1    
    17    8   74 1    
    18    8   75 1    
    19    9   10 ar   
    20    9   14 ar   
    21   10   11 ar   
    22   10   76 1    
    23   11   12 ar   
    24   11   48 1    
    25   12   13 ar   
    26   12   77 1    
    27   13   14 ar   
    28   13   15 1    
    29   14   78 1    
    30   15   16 1    
    31   15   79 1    
    32   15   80 1    
    33   16   17 1    
    34   17   18 1    
    35   17   81 1    
    36   17   82 1    
    37   18   19 1    
    38   18   22 1    
    39   18   83 1    
    40   19   20 am   BACKBONE|DICT|INTERRES
    41   19   21 2    
    42   20   84 1    
    43   20   85 1    
    44   22   23 am   BACKBONE|DICT|INTERRES
    45   22   86 1    
    46   23   24 2    
    47   23   25 1    
    48   25   26 1    
    49   25   27 1    
    50   25   87 1    
    51   26   88 1    
    52   26   89 1    
    53   26   90 1    
    54   27   28 am   BACKBONE|DICT|INTERRES
    55   27   91 1    
    56   28   29 2    
    57   28   30 1    
    58   30   31 1    
    59   30   32 1    
    60   30   92 1    
    61   31   93 1    
    62   31   94 1    
    63   31   95 1    
    64   32   33 am   BACKBONE|DICT|INTERRES
    65   32   96 1    
    66   33   34 2    
    67   33   35 1    
    68   35   36 1    
    69   35   37 1    
    70   35   97 1    
    71   36   98 1    
    72   36   99 1    
    73   36  100 1    
    74   37   38 am   BACKBONE|DICT|INTERRES
    75   37  101 1    
    76   38   39 2    
    77   38   40 1    
    78   40   41 1    
    79   40   42 1    
    80   40  102 1    
    81   41  103 1    
    82   41  104 1    
    83   41  105 1    
    84   42   43 am   BACKBONE|DICT|INTERRES
    85   42  106 1    
    86   43   44 2    
    87   43   45 1    
    88   45   46 1    
    89   45   49 1    
    90   45  107 1    
    91   46   47 1    
    92   46  108 1    
    93   46  109 1    
    94   47   48 1    
    95   48  110 1    
    96   48  111 1    
    97   49   50 am   BACKBONE|DICT|INTERRES
    98   49  112 1    
    99   50   51 2    
   100   50   52 1    
   101   52   53 1    
   102   52   54 1    
   103   52  113 1    
   104   53  114 1    
   105   53  115 1    
   106   53  116 1    
   107   54   55 am   BACKBONE|DICT|INTERRES
   108   54  117 1    
   109   55   56 2    
   110   55   57 1    
   111   57   58 1    
   112   57   59 1    
   113   57  118 1    
   114   58  119 1    
   115   58  120 1    
   116   58  121 1    
   117   59   60 am   BACKBONE|DICT|INTERRES
   118   59  122 1    
   119   60   61 2    
   120   60   62 1    
   121   62   63 1    
   122   62   64 1    
   123   62  123 1    
   124   63  124 1    
   125   63  125 1    
   126   63  126 1    
   127   64   65 am   BACKBONE|DICT|INTERRES
   128   64  127 1    
   129   65   66 2    
@<TRIPOS>SUBSTRUCTURE
     1 UNK         1 GROUP             0       ****    0 ROOT    
