@<TRIPOS>MOLECULE
3R135
127   129    1
SMALL
USER_CHARGES


@<TRIPOS>ATOM
      1 CA        -83.2490   27.9187  -75.5003 C.3       0 UNK        -0.1998 
      2 C         -81.7714   27.6076  -75.3266 C.2       0 UNK         0.4909 
      3 O         -81.3338   26.5146  -75.6873 O.2       0 UNK        -0.5240 
      4 N         -80.9946   28.5684  -74.8036 N.am      1 UNK        -0.4739 
      5 CA        -79.5650   28.4636  -74.4554 C.3       1 UNK         0.0864 
      6 C6        -79.3158   27.6260  -73.1756 C.3       11 UNK        -0.0881 
      7 S7        -80.1239   28.3362  -71.6982 S.3       11 UNK        -0.2682 
      8 C8        -78.7581   29.2576  -70.8993 C.3       11 UNK         0.0289 
      9 C9        -77.5057   28.4157  -70.6711 C.ar      11 UNK        -0.0687 
     10 C10       -77.6017   27.1313  -70.1266 C.ar      11 UNK        -0.0823 
     11 C11       -76.4728   26.3158  -70.0290 C.ar      11 UNK        -0.0830 
     12 C12       -75.2254   26.8176  -70.4075 C.ar      11 UNK        -0.1021 
     13 C13       -75.1058   28.1111  -70.9235 C.ar      11 UNK        -0.0753 
     14 C14       -76.2532   28.9012  -71.0635 C.ar      11 UNK        -0.0933 
     15 C15       -73.7484   28.5903  -71.4220 C.3       11 UNK         0.0166 
     16 S16       -73.3472   30.3109  -70.9832 S.3       11 UNK        -0.2615 
     17 C17       -72.0565   30.6487  -72.2347 C.3       11 UNK        -0.0865 
     18 CA        -72.6025   31.4443  -73.4510 C.3       10 UNK         0.0862 
     19 C         -71.4765   31.7847  -74.4705 C.2       10 UNK         0.5551 
     20 N         -71.5895   31.4219  -75.7436 N.am      10 UNK        -0.7319 
     21 O         -70.4840   32.4066  -74.0994 O.2       10 UNK        -0.5018 
     22 N         -73.7619   30.7778  -74.0633 N.am      10 UNK        -0.4509 
     23 C         -74.8259   31.4068  -74.5714 C.2       10 UNK         0.4899 
     24 O         -74.9756   32.6293  -74.5398 O.2       10 UNK        -0.4839 
     25 CA        -75.9203   30.5238  -75.2060 C.3       9 UNK         0.0222 
     26 CB        -76.6621   31.2566  -76.3451 C.3       9 UNK        -0.1966 
     27 N         -75.4681   29.1993  -75.6613 N.am      9 UNK        -0.4218 
     28 C         -74.5238   28.9324  -76.5733 C.2       9 UNK         0.5020 
     29 O         -73.7963   29.7888  -77.0820 O.2       9 UNK        -0.5274 
     30 CA        -74.3868   27.4511  -76.9729 C.3       8 UNK         0.0270 
     31 CB        -73.6002   27.2685  -78.2876 C.3       8 UNK        -0.1976 
     32 N         -73.8143   26.6012  -75.9216 N.am      8 UNK        -0.4313 
     33 C         -72.6282   26.7455  -75.3059 C.2       8 UNK         0.5041 
     34 O         -71.9165   27.7446  -75.4056 O.2       8 UNK        -0.5577 
     35 CA        -72.1195   25.5725  -74.4403 C.3       7 UNK         0.0284 
     36 CB        -72.1249   25.9378  -72.9495 C.3       7 UNK        -0.1958 
     37 N         -72.8632   24.3243  -74.6159 N.am      7 UNK        -0.4454 
     38 C         -72.8632   23.5562  -75.7136 C.2       7 UNK         0.5089 
     39 O         -72.1590   23.7707  -76.7000 O.2       7 UNK        -0.5125 
     40 CA        -73.8296   22.3550  -75.7193 C.3       6 UNK         0.0408 
     41 CB        -73.0499   21.0401  -75.5560 C.3       6 UNK        -0.1791 
     42 N         -74.8854   22.4174  -74.6972 N.am      6 UNK        -0.4762 
     43 C         -75.8674   23.3303  -74.6524 C.2       6 UNK         0.5007 
     44 O         -75.9651   24.2680  -75.4486 O.2       6 UNK        -0.5032 
     45 CA        -76.8708   23.2044  -73.4963 C.3       5 UNK         0.0783 
     46 C46       -76.4833   24.1470  -72.3288 C.3       11 UNK        -0.0857 
     47 S47       -77.5036   23.8763  -70.8385 S.3       11 UNK        -0.2512 
     48 C48       -76.6166   24.8673  -69.5882 C.3       11 UNK         0.0225 
     49 N         -78.1968   23.4973  -74.0380 N.am      5 UNK        -0.4615 
     50 C         -79.2771   22.7259  -73.8722 C.2       4 UNK         0.5053 
     51 O         -79.2922   21.7064  -73.1811 O.2       4 UNK        -0.5105 
     52 CA        -80.5642   23.1379  -74.6064 C.3       4 UNK         0.0263 
     53 CB        -81.5121   23.8941  -73.6614 C.3       4 UNK        -0.1981 
     54 N         -80.3387   23.9323  -75.8189 N.am      4 UNK        -0.4224 
     55 C         -79.8316   23.4357  -76.9571 C.2       3 UNK         0.4895 
     56 O         -79.4217   22.2797  -77.0698 O.2       3 UNK        -0.5091 
     57 CA        -79.7997   24.3500  -78.1897 C.3       3 UNK         0.0250 
     58 CB        -81.1514   24.2999  -78.9222 C.3       3 UNK        -0.1996 
     59 N         -79.4842   25.7439  -77.8668 N.am      3 UNK        -0.4254 
     60 C         -78.4869   26.4435  -78.4295 C.2       2 UNK         0.5004 
     61 O         -77.6758   25.9649  -79.2231 O.2       2 UNK        -0.5226 
     62 CA        -78.3787   27.9432  -78.0919 C.3       2 UNK         0.0269 
     63 CB        -78.9197   28.7945  -79.2521 C.3       2 UNK        -0.1926 
     64 N         -79.0705   28.3292  -76.8619 N.am      2 UNK        -0.4687 
     65 C         -78.6670   28.0030  -75.6274 C.2       1 UNK         0.5165 
     66 O         -77.6273   27.3797  -75.4049 O.2       1 UNK        -0.5079 
     67 H67       -83.5267   27.8425  -76.5511 H         1 UNK         0.0900 
     68 H68       -83.8480   27.2041  -74.9366 H         1 UNK         0.0900 
     69 H69       -83.4992   28.9208  -75.1528 H         1 UNK         0.0900 
     70 H70       -81.4249   29.4469  -74.5486 H         1 UNK         0.2959 
     71 H71       -79.2340   29.4814  -74.2432 H         1 UNK         0.1079 
     72 H72       -79.6825   26.6096  -73.3135 H         1 UNK         0.0837 
     73 H73       -78.2489   27.5182  -72.9807 H         1 UNK         0.0837 
     74 H74       -78.5275   30.1286  -71.5147 H         1 UNK         0.0685 
     75 H75       -79.1052   29.6403  -69.9389 H         1 UNK         0.0685 
     76 H76       -78.5686   26.7374  -69.8445 H         1 UNK         0.1434 
     77 H77       -74.3520   26.1837  -70.3385 H         1 UNK         0.1329 
     78 H78       -76.1720   29.8864  -71.5018 H         1 UNK         0.1335 
     79 H79       -73.7349   28.4732  -72.5055 H         1 UNK         0.0680 
     80 H80       -72.9525   27.9592  -71.0248 H         1 UNK         0.0680 
     81 H81       -71.2620   31.2133  -71.7431 H         1 UNK         0.1032 
     82 H82       -71.5971   29.7134  -72.5609 H         1 UNK         0.1032 
     83 H83       -72.9331   32.4090  -73.0613 H         1 UNK         0.0461 
     84 H84       -72.3922   30.8925  -76.0680 H         1 UNK         0.3453 
     85 H85       -70.8517   31.6540  -76.3886 H         1 UNK         0.3453 
     86 H86       -73.6887   29.7796  -74.1877 H         1 UNK         0.2984 
     87 H87       -76.6426   30.3330  -74.4112 H         1 UNK         0.0554 
     88 H88       -77.1357   32.1704  -75.9841 H         1 UNK         0.0847 
     89 H89       -77.4485   30.6403  -76.7772 H         1 UNK         0.0847 
     90 H90       -75.9822   31.5402  -77.1493 H         1 UNK         0.0847 
     91 H91       -76.0271   28.4144  -75.3329 H         1 UNK         0.3141 
     92 H92       -75.3947   27.0719  -77.1463 H         1 UNK         0.0743 
     93 H93       -72.5670   27.6048  -78.1919 H         1 UNK         0.0784 
     94 H94       -73.5842   26.2232  -78.5966 H         1 UNK         0.0784 
     95 H95       -74.0558   27.8400  -79.0973 H         1 UNK         0.0784 
     96 H96       -74.3482   25.7630  -75.7184 H         1 UNK         0.3213 
     97 H97       -71.0854   25.3894  -74.7404 H         1 UNK         0.0855 
     98 H98       -73.1412   26.0512  -72.5736 H         1 UNK         0.0814 
     99 H99       -71.5924   26.8734  -72.7735 H         1 UNK         0.0814 
    100 H100      -71.6308   25.1714  -72.3521 H         1 UNK         0.0814 
    101 H101      -73.4641   24.0435  -73.8561 H         1 UNK         0.3105 
    102 H102      -74.3168   22.3422  -76.6965 H         1 UNK         0.0547 
    103 H103      -72.2791   20.9449  -76.3223 H         1 UNK         0.0837 
    104 H104      -72.5529   20.9821  -74.5868 H         1 UNK         0.0837 
    105 H105      -73.7047   20.1739  -75.6520 H         1 UNK         0.0837 
    106 H106      -74.8654   21.6882  -73.9974 H         1 UNK         0.3020 
    107 H107      -76.8360   22.1732  -73.1372 H         1 UNK         0.1245 
    108 H108      -76.5784   25.1912  -72.6353 H         1 UNK         0.0781 
    109 H109      -75.4392   24.0007  -72.0456 H         1 UNK         0.0781 
    110 H110      -75.6410   24.4168  -69.3988 H         1 UNK         0.0836 
    111 H111      -77.1631   24.8261  -68.6450 H         1 UNK         0.0836 
    112 H112      -78.2383   24.2816  -74.6750 H         1 UNK         0.3022 
    113 H113      -81.0672   22.2162  -74.9073 H         1 UNK         0.0747 
    114 H114      -82.4570   24.1295  -74.1515 H         1 UNK         0.0793 
    115 H115      -81.7440   23.2947  -72.7801 H         1 UNK         0.0793 
    116 H116      -81.0763   24.8286  -73.3114 H         1 UNK         0.0793 
    117 H117      -80.6857   24.8912  -75.7986 H         1 UNK         0.3047 
    118 H118      -79.0432   23.9360  -78.8598 H         1 UNK         0.0822 
    119 H119      -81.1164   24.8647  -79.8540 H         1 UNK         0.0807 
    120 H120      -81.9566   24.7111  -78.3117 H         1 UNK         0.0807 
    121 H121      -81.4228   23.2741  -79.1756 H         1 UNK         0.0807 
    122 H122      -80.0902   26.2067  -77.1963 H         1 UNK         0.2946 
    123 H123      -77.3184   28.1719  -77.9741 H         1 UNK         0.1144 
    124 H124      -78.7756   29.8588  -79.0654 H         1 UNK         0.0793 
    125 H125      -79.9839   28.6217  -79.4175 H         1 UNK         0.0793 
    126 H126      -78.4030   28.5590  -80.1837 H         1 UNK         0.0793 
    127 H127      -79.9391   28.8349  -76.9627 H         1 UNK         0.2896 
@<TRIPOS>BOND
     1    1    2 1    
     2    1   67 1    
     3    1   68 1    
     4    1   69 1    
     5    2    3 2    
     6    2    4 am   BACKBONE|DICT|INTERRES
     7    4    5 1    
     8    4   70 1    
     9    5    6 1    
    10    5   65 1    
    11    5   71 1    
    12    6    7 1    
    13    6   72 1    
    14    6   73 1    
    15    7    8 1    
    16    8    9 1    
    17    8   74 1    
    18    8   75 1    
    19    9   10 ar   
    20    9   14 ar   
    21   10   11 ar   
    22   10   76 1    
    23   11   12 ar   
    24   11   48 1    
    25   12   13 ar   
    26   12   77 1    
    27   13   14 ar   
    28   13   15 1    
    29   14   78 1    
    30   15   16 1    
    31   15   79 1    
    32   15   80 1    
    33   16   17 1    
    34   17   18 1    
    35   17   81 1    
    36   17   82 1    
    37   18   19 1    
    38   18   22 1    
    39   18   83 1    
    40   19   20 am   BACKBONE|DICT|INTERRES
    41   19   21 2    
    42   20   84 1    
    43   20   85 1    
    44   22   23 am   BACKBONE|DICT|INTERRES
    45   22   86 1    
    46   23   24 2    
    47   23   25 1    
    48   25   26 1    
    49   25   27 1    
    50   25   87 1    
    51   26   88 1    
    52   26   89 1    
    53   26   90 1    
    54   27   28 am   BACKBONE|DICT|INTERRES
    55   27   91 1    
    56   28   29 2    
    57   28   30 1    
    58   30   31 1    
    59   30   32 1    
    60   30   92 1    
    61   31   93 1    
    62   31   94 1    
    63   31   95 1    
    64   32   33 am   BACKBONE|DICT|INTERRES
    65   32   96 1    
    66   33   34 2    
    67   33   35 1    
    68   35   36 1    
    69   35   37 1    
    70   35   97 1    
    71   36   98 1    
    72   36   99 1    
    73   36  100 1    
    74   37   38 am   BACKBONE|DICT|INTERRES
    75   37  101 1    
    76   38   39 2    
    77   38   40 1    
    78   40   41 1    
    79   40   42 1    
    80   40  102 1    
    81   41  103 1    
    82   41  104 1    
    83   41  105 1    
    84   42   43 am   BACKBONE|DICT|INTERRES
    85   42  106 1    
    86   43   44 2    
    87   43   45 1    
    88   45   46 1    
    89   45   49 1    
    90   45  107 1    
    91   46   47 1    
    92   46  108 1    
    93   46  109 1    
    94   47   48 1    
    95   48  110 1    
    96   48  111 1    
    97   49   50 am   BACKBONE|DICT|INTERRES
    98   49  112 1    
    99   50   51 2    
   100   50   52 1    
   101   52   53 1    
   102   52   54 1    
   103   52  113 1    
   104   53  114 1    
   105   53  115 1    
   106   53  116 1    
   107   54   55 am   BACKBONE|DICT|INTERRES
   108   54  117 1    
   109   55   56 2    
   110   55   57 1    
   111   57   58 1    
   112   57   59 1    
   113   57  118 1    
   114   58  119 1    
   115   58  120 1    
   116   58  121 1    
   117   59   60 am   BACKBONE|DICT|INTERRES
   118   59  122 1    
   119   60   61 2    
   120   60   62 1    
   121   62   63 1    
   122   62   64 1    
   123   62  123 1    
   124   63  124 1    
   125   63  125 1    
   126   63  126 1    
   127   64   65 am   BACKBONE|DICT|INTERRES
   128   64  127 1    
   129   65   66 2    
@<TRIPOS>SUBSTRUCTURE
     1 UNK         1 GROUP             0       ****    0 ROOT    
