@<TRIPOS>MOLECULE
3R135
127   129    1
SMALL
USER_CHARGES


@<TRIPOS>ATOM
      1 CA        -78.6570   22.3895  -69.6422 C.3       0 UNK        -0.1998 
      2 C         -77.4817   22.9375  -70.4488 C.2       0 UNK         0.4909 
      3 O         -76.3523   22.5000  -70.2374 O.2       0 UNK        -0.5240 
      4 N         -77.6791   23.8960  -71.3655 N.am      1 UNK        -0.4739 
      5 CA        -78.9608   24.4539  -71.8079 C.3       1 UNK         0.0864 
      6 C6        -78.7359   25.7503  -72.6273 C.3       11 UNK        -0.0881 
      7 S7        -80.2852   26.6504  -72.9917 S.3       11 UNK        -0.2682 
      8 C8        -80.0791   28.1878  -72.0410 C.3       11 UNK         0.0289 
      9 C9        -79.0241   29.0893  -72.6630 C.ar      11 UNK        -0.0687 
     10 C10       -79.3060   29.7910  -73.8386 C.ar      11 UNK        -0.0823 
     11 C11       -78.3349   30.6065  -74.4266 C.ar      11 UNK        -0.0830 
     12 C12       -77.0753   30.7159  -73.8303 C.ar      11 UNK        -0.1021 
     13 C13       -76.7854   30.0278  -72.6479 C.ar      11 UNK        -0.0753 
     14 C14       -77.7662   29.2185  -72.0682 C.ar      11 UNK        -0.0933 
     15 C15       -75.3999   30.0982  -72.0236 C.3       11 UNK         0.0166 
     16 S16       -74.7847   31.7979  -71.8015 S.3       11 UNK        -0.2615 
     17 C17       -73.1238   31.4373  -71.1332 C.3       11 UNK        -0.0865 
     18 CA        -71.9961   31.4549  -72.2007 C.3       10 UNK         0.0862 
     19 C         -70.6280   31.1399  -71.5268 C.2       10 UNK         0.5551 
     20 N         -70.0711   29.9445  -71.6929 N.am      10 UNK        -0.7319 
     21 O         -70.0702   31.9935  -70.8418 O.2       10 UNK        -0.5018 
     22 N         -72.3030   30.5847  -73.3470 N.am      10 UNK        -0.4509 
     23 C         -71.6422   30.5754  -74.5097 C.2       10 UNK         0.4899 
     24 O         -70.7893   31.4132  -74.8076 O.2       10 UNK        -0.4839 
     25 CA        -71.9788   29.4543  -75.5173 C.3       9 UNK         0.0222 
     26 CB        -70.7020   28.8674  -76.1537 C.3       9 UNK        -0.1966 
     27 N         -72.8310   28.3613  -75.0212 N.am      9 UNK        -0.4218 
     28 C         -72.6021   27.5234  -73.9967 C.2       9 UNK         0.5020 
     29 O         -71.6798   27.6550  -73.1900 O.2       9 UNK        -0.5274 
     30 CA        -73.5600   26.3250  -73.8620 C.3       8 UNK         0.0270 
     31 CB        -74.9140   26.7395  -73.2628 C.3       8 UNK        -0.1976 
     32 N         -73.7840   25.6455  -75.1391 N.am      8 UNK        -0.4313 
     33 C         -72.8466   24.9669  -75.8177 C.2       8 UNK         0.5041 
     34 O         -71.6961   24.7883  -75.4163 O.2       8 UNK        -0.5577 
     35 CA        -73.2626   24.3931  -77.1794 C.3       7 UNK         0.0284 
     36 CB        -74.0171   23.0662  -77.0012 C.3       7 UNK        -0.1958 
     37 N         -74.0871   25.3459  -77.9254 N.am      7 UNK        -0.4454 
     38 C         -73.5881   26.3655  -78.6390 C.2       7 UNK         0.5089 
     39 O         -72.3838   26.5568  -78.8083 O.2       7 UNK        -0.5125 
     40 CA        -74.5926   27.3411  -79.2803 C.3       6 UNK         0.0408 
     41 CB        -74.8546   26.9527  -80.7439 C.3       6 UNK        -0.1791 
     42 N         -75.8714   27.4367  -78.5709 N.am      6 UNK        -0.4762 
     43 C         -76.0283   27.9567  -77.3443 C.2       6 UNK         0.5007 
     44 O         -75.0995   28.3804  -76.6566 O.2       6 UNK        -0.5032 
     45 CA        -77.4599   27.9354  -76.7659 C.3       5 UNK         0.0783 
     46 C46       -78.3489   29.0717  -77.3380 C.3       11 UNK        -0.0857 
     47 S47       -77.6798   30.7581  -77.1187 S.3       11 UNK        -0.2512 
     48 C48       -78.6445   31.3731  -75.7036 C.3       11 UNK         0.0225 
     49 N         -78.1120   26.6339  -76.9578 N.am      5 UNK        -0.4615 
     50 C         -77.6361   25.4364  -76.5940 C.2       4 UNK         0.5053 
     51 O         -76.5520   25.2758  -76.0290 O.2       4 UNK        -0.5105 
     52 CA        -78.5247   24.2267  -76.9416 C.3       4 UNK         0.0263 
     53 CB        -77.8665   22.8791  -76.5969 C.3       4 UNK        -0.1981 
     54 N         -79.8317   24.3141  -76.2833 N.am      4 UNK        -0.4224 
     55 C         -80.8651   25.0426  -76.7340 C.2       3 UNK         0.4895 
     56 O         -80.7942   25.7332  -77.7527 O.2       3 UNK        -0.5091 
     57 CA        -82.1762   25.0670  -75.9223 C.3       3 UNK         0.0250 
     58 CB        -83.4025   24.7357  -76.7987 C.3       3 UNK        -0.1996 
     59 N         -82.1578   24.2700  -74.6894 N.am      3 UNK        -0.4254 
     60 C         -82.1566   22.9356  -74.5455 C.2       2 UNK         0.5004 
     61 O         -82.2221   22.1355  -75.4793 O.2       2 UNK        -0.5226 
     62 CA        -82.0044   22.4321  -73.0935 C.3       2 UNK         0.0269 
     63 CB        -81.6686   20.9273  -73.0050 C.3       2 UNK        -0.1926 
     64 N         -81.0345   23.2359  -72.3295 N.am      2 UNK        -0.4687 
     65 C         -79.7391   23.4123  -72.6356 C.2       1 UNK         0.5165 
     66 O         -79.1701   22.8396  -73.5650 O.2       1 UNK        -0.5079 
     67 H67       -79.2840   21.7459  -70.2584 H         1 UNK         0.0900 
     68 H68       -79.2677   23.1896  -69.2265 H         1 UNK         0.0900 
     69 H69       -78.2948   21.7920  -68.8058 H         1 UNK         0.0900 
     70 H70       -76.8778   24.2057  -71.8949 H         1 UNK         0.2959 
     71 H71       -79.5416   24.7182  -70.9225 H         1 UNK         0.1079 
     72 H72       -78.0615   26.4106  -72.0822 H         1 UNK         0.0837 
     73 H73       -78.2316   25.5344  -73.5714 H         1 UNK         0.0837 
     74 H74       -79.8321   27.9474  -71.0057 H         1 UNK         0.0685 
     75 H75       -81.0332   28.7161  -72.0133 H         1 UNK         0.0685 
     76 H76       -80.2803   29.6913  -74.2974 H         1 UNK         0.1434 
     77 H77       -76.3166   31.3324  -74.2932 H         1 UNK         0.1329 
     78 H78       -77.5454   28.6733  -71.1608 H         1 UNK         0.1335 
     79 H79       -74.7152   29.5530  -72.6696 H         1 UNK         0.0680 
     80 H80       -75.3888   29.5932  -71.0564 H         1 UNK         0.0680 
     81 H81       -72.9155   32.1836  -70.3638 H         1 UNK         0.1032 
     82 H82       -73.1439   30.4782  -70.6117 H         1 UNK         0.1032 
     83 H83       -71.9257   32.4739  -72.5859 H         1 UNK         0.0461 
     84 H84       -70.5396   29.2316  -72.2397 H         1 UNK         0.3453 
     85 H85       -69.1856   29.7448  -71.2559 H         1 UNK         0.3453 
     86 H86       -72.9675   29.8466  -73.1811 H         1 UNK         0.2984 
     87 H87       -72.5526   29.9329  -76.3120 H         1 UNK         0.0554 
     88 H88       -70.1178   29.6390  -76.6564 H         1 UNK         0.0847 
     89 H89       -70.9440   28.1109  -76.9006 H         1 UNK         0.0847 
     90 H90       -70.0568   28.4044  -75.4063 H         1 UNK         0.0847 
     91 H91       -73.6663   28.2021  -75.5857 H         1 UNK         0.3141 
     92 H92       -73.0968   25.6066  -73.1823 H         1 UNK         0.0743 
     93 H93       -74.7847   27.1726  -72.2707 H         1 UNK         0.0784 
     94 H94       -75.4298   27.4717  -73.8855 H         1 UNK         0.0784 
     95 H95       -75.5740   25.8792  -73.1526 H         1 UNK         0.0784 
     96 H96       -74.7257   25.6826  -75.5211 H         1 UNK         0.3213 
     97 H97       -72.3552   24.1871  -77.7521 H         1 UNK         0.0855 
     98 H98       -74.8803   23.1756  -76.3452 H         1 UNK         0.0814 
     99 H99       -73.3685   22.3126  -76.5528 H         1 UNK         0.0814 
    100 H100      -74.3625   22.6698  -77.9561 H         1 UNK         0.0814 
    101 H101      -75.0875   25.2897  -77.7934 H         1 UNK         0.3105 
    102 H102      -74.1336   28.3322  -79.2694 H         1 UNK         0.0547 
    103 H103      -75.3350   25.9768  -80.8243 H         1 UNK         0.0837 
    104 H104      -75.4908   27.6842  -81.2422 H         1 UNK         0.0837 
    105 H105      -73.9214   26.9027  -81.3069 H         1 UNK         0.0837 
    106 H106      -76.6891   27.0947  -79.0551 H         1 UNK         0.3020 
    107 H107      -77.3669   28.0859  -75.6877 H         1 UNK         0.1245 
    108 H108      -79.3405   29.0263  -76.8849 H         1 UNK         0.0781 
    109 H109      -78.5094   28.9200  -78.4070 H         1 UNK         0.0781 
    110 H110      -78.4111   32.4276  -75.5503 H         1 UNK         0.0836 
    111 H111      -79.7082   31.3288  -75.9431 H         1 UNK         0.0836 
    112 H112      -79.0259   26.6454  -77.3993 H         1 UNK         0.3022 
    113 H113      -78.6784   24.2384  -78.0229 H         1 UNK         0.0747 
    114 H114      -77.0031   22.6994  -77.2368 H         1 UNK         0.0793 
    115 H115      -78.5552   22.0477  -76.7482 H         1 UNK         0.0793 
    116 H116      -77.5208   22.8431  -75.5636 H         1 UNK         0.0793 
    117 H117      -79.9317   23.7931  -75.4204 H         1 UNK         0.3047 
    118 H118      -82.2886   26.1008  -75.5915 H         1 UNK         0.0822 
    119 H119      -83.4972   25.4460  -77.6211 H         1 UNK         0.0807 
    120 H120      -84.3272   24.7841  -76.2237 H         1 UNK         0.0807 
    121 H121      -83.3319   23.7418  -77.2411 H         1 UNK         0.0807 
    122 H122      -82.0622   24.8171  -73.8440 H         1 UNK         0.2946 
    123 H123      -82.9775   22.5788  -72.6212 H         1 UNK         0.1144 
    124 H124      -82.4551   20.3255  -73.4619 H         1 UNK         0.0793 
    125 H125      -81.5741   20.6022  -71.9690 H         1 UNK         0.0793 
    126 H126      -80.7379   20.6853  -73.5190 H         1 UNK         0.0793 
    127 H127      -81.4224   23.7601  -71.5564 H         1 UNK         0.2896 
@<TRIPOS>BOND
     1    1    2 1    
     2    1   67 1    
     3    1   68 1    
     4    1   69 1    
     5    2    3 2    
     6    2    4 am   BACKBONE|DICT|INTERRES
     7    4    5 1    
     8    4   70 1    
     9    5    6 1    
    10    5   65 1    
    11    5   71 1    
    12    6    7 1    
    13    6   72 1    
    14    6   73 1    
    15    7    8 1    
    16    8    9 1    
    17    8   74 1    
    18    8   75 1    
    19    9   10 ar   
    20    9   14 ar   
    21   10   11 ar   
    22   10   76 1    
    23   11   12 ar   
    24   11   48 1    
    25   12   13 ar   
    26   12   77 1    
    27   13   14 ar   
    28   13   15 1    
    29   14   78 1    
    30   15   16 1    
    31   15   79 1    
    32   15   80 1    
    33   16   17 1    
    34   17   18 1    
    35   17   81 1    
    36   17   82 1    
    37   18   19 1    
    38   18   22 1    
    39   18   83 1    
    40   19   20 am   BACKBONE|DICT|INTERRES
    41   19   21 2    
    42   20   84 1    
    43   20   85 1    
    44   22   23 am   BACKBONE|DICT|INTERRES
    45   22   86 1    
    46   23   24 2    
    47   23   25 1    
    48   25   26 1    
    49   25   27 1    
    50   25   87 1    
    51   26   88 1    
    52   26   89 1    
    53   26   90 1    
    54   27   28 am   BACKBONE|DICT|INTERRES
    55   27   91 1    
    56   28   29 2    
    57   28   30 1    
    58   30   31 1    
    59   30   32 1    
    60   30   92 1    
    61   31   93 1    
    62   31   94 1    
    63   31   95 1    
    64   32   33 am   BACKBONE|DICT|INTERRES
    65   32   96 1    
    66   33   34 2    
    67   33   35 1    
    68   35   36 1    
    69   35   37 1    
    70   35   97 1    
    71   36   98 1    
    72   36   99 1    
    73   36  100 1    
    74   37   38 am   BACKBONE|DICT|INTERRES
    75   37  101 1    
    76   38   39 2    
    77   38   40 1    
    78   40   41 1    
    79   40   42 1    
    80   40  102 1    
    81   41  103 1    
    82   41  104 1    
    83   41  105 1    
    84   42   43 am   BACKBONE|DICT|INTERRES
    85   42  106 1    
    86   43   44 2    
    87   43   45 1    
    88   45   46 1    
    89   45   49 1    
    90   45  107 1    
    91   46   47 1    
    92   46  108 1    
    93   46  109 1    
    94   47   48 1    
    95   48  110 1    
    96   48  111 1    
    97   49   50 am   BACKBONE|DICT|INTERRES
    98   49  112 1    
    99   50   51 2    
   100   50   52 1    
   101   52   53 1    
   102   52   54 1    
   103   52  113 1    
   104   53  114 1    
   105   53  115 1    
   106   53  116 1    
   107   54   55 am   BACKBONE|DICT|INTERRES
   108   54  117 1    
   109   55   56 2    
   110   55   57 1    
   111   57   58 1    
   112   57   59 1    
   113   57  118 1    
   114   58  119 1    
   115   58  120 1    
   116   58  121 1    
   117   59   60 am   BACKBONE|DICT|INTERRES
   118   59  122 1    
   119   60   61 2    
   120   60   62 1    
   121   62   63 1    
   122   62   64 1    
   123   62  123 1    
   124   63  124 1    
   125   63  125 1    
   126   63  126 1    
   127   64   65 am   BACKBONE|DICT|INTERRES
   128   64  127 1    
   129   65   66 2    
@<TRIPOS>SUBSTRUCTURE
     1 UNK         1 GROUP             0       ****    0 ROOT    
