@<TRIPOS>MOLECULE
3R135
127   129    1
SMALL
USER_CHARGES


@<TRIPOS>ATOM
      1 CA        -84.6478   29.5284  -74.1588 C.3       0 UNK        -0.1998 
      2 C         -83.7585   28.4234  -73.6088 C.2       0 UNK         0.4909 
      3 O         -84.2719   27.4036  -73.1481 O.2       0 UNK        -0.5240 
      4 N         -82.4331   28.6239  -73.6627 N.am      1 UNK        -0.4739 
      5 CA        -81.3872   27.7057  -73.1779 C.3       1 UNK         0.0864 
      6 C6        -81.4231   27.4765  -71.6391 C.3       11 UNK        -0.0881 
      7 S7        -81.3993   28.9824  -70.5968 S.3       11 UNK        -0.2682 
      8 C8        -80.1603   30.0768  -71.3839 C.3       11 UNK         0.0289 
      9 C9        -78.7627   29.4808  -71.5664 C.ar      11 UNK        -0.0687 
     10 C10       -78.2755   28.4488  -70.7553 C.ar      11 UNK        -0.0823 
     11 C11       -77.0007   27.9143  -70.9612 C.ar      11 UNK        -0.0830 
     12 C12       -76.1860   28.4509  -71.9638 C.ar      11 UNK        -0.1021 
     13 C13       -76.6469   29.4980  -72.7661 C.ar      11 UNK        -0.0753 
     14 C14       -77.9359   30.0006  -72.5671 C.ar      11 UNK        -0.0933 
     15 C15       -75.7651   30.0826  -73.8587 C.3       11 UNK         0.0166 
     16 S16       -74.9615   31.6247  -73.3235 S.3       11 UNK        -0.2615 
     17 C17       -73.5406   30.9910  -72.3671 C.3       11 UNK        -0.0865 
     18 CA        -72.1970   31.1807  -73.1169 C.3       10 UNK         0.0862 
     19 C         -71.0051   30.7448  -72.2248 C.2       10 UNK         0.5551 
     20 N         -70.2849   31.6915  -71.6395 N.am      10 UNK        -0.7319 
     21 O         -70.7631   29.5569  -72.0225 O.2       10 UNK        -0.5018 
     22 N         -72.1919   30.4720  -74.4032 N.am      10 UNK        -0.4509 
     23 C         -71.3418   30.7098  -75.4086 C.2       10 UNK         0.4899 
     24 O         -70.4907   31.6010  -75.3926 O.2       10 UNK        -0.4839 
     25 CA        -71.4892   29.7953  -76.6411 C.3       9 UNK         0.0222 
     26 CB        -70.3520   29.9714  -77.6702 C.3       9 UNK        -0.1966 
     27 N         -71.6594   28.3826  -76.2781 N.am      9 UNK        -0.4218 
     28 C         -70.7915   27.6074  -75.6032 C.2       9 UNK         0.5020 
     29 O         -69.6816   27.9853  -75.2259 O.2       9 UNK        -0.5274 
     30 CA        -71.2246   26.1643  -75.2771 C.3       8 UNK         0.0270 
     31 CB        -71.5571   26.0359  -73.7808 C.3       8 UNK        -0.1976 
     32 N         -72.3683   25.7064  -76.0720 N.am      8 UNK        -0.4313 
     33 C         -72.2988   25.3830  -77.3736 C.2       8 UNK         0.5041 
     34 O         -71.2412   25.3431  -78.0038 O.2       8 UNK        -0.5577 
     35 CA        -73.6138   25.0747  -78.1189 C.3       7 UNK         0.0284 
     36 CB        -73.7556   23.5625  -78.3536 C.3       7 UNK        -0.1958 
     37 N         -74.8230   25.5742  -77.4571 N.am      7 UNK        -0.4454 
     38 C         -75.0918   26.8629  -77.1989 C.2       7 UNK         0.5089 
     39 O         -74.3596   27.7951  -77.5328 O.2       7 UNK        -0.5125 
     40 CA        -76.3437   27.1569  -76.3529 C.3       6 UNK         0.0408 
     41 CB        -77.5384   27.5058  -77.2518 C.3       6 UNK        -0.1791 
     42 N         -76.7073   26.0780  -75.4230 N.am      6 UNK        -0.4762 
     43 C         -75.9087   25.6193  -74.4442 C.2       6 UNK         0.5007 
     44 O         -74.7678   26.0479  -74.2677 O.2       6 UNK        -0.5032 
     45 CA        -76.4087   24.4599  -73.5611 C.3       5 UNK         0.0783 
     46 C46       -77.0397   24.9400  -72.2299 C.3       11 UNK        -0.0857 
     47 S47       -75.7537   25.3921  -71.0113 S.3       11 UNK        -0.2512 
     48 C48       -76.5219   26.7623  -70.0839 C.3       11 UNK         0.0225 
     49 N         -77.2956   23.5554  -74.2997 N.am      5 UNK        -0.4615 
     50 C         -77.1392   22.2236  -74.3375 C.2       4 UNK         0.5053 
     51 O         -76.2655   21.6209  -73.7128 O.2       4 UNK        -0.5105 
     52 CA        -78.1041   21.4026  -75.2155 C.3       4 UNK         0.0263 
     53 CB        -79.2221   20.7950  -74.3525 C.3       4 UNK        -0.1981 
     54 N         -78.7100   22.1529  -76.3158 N.am      4 UNK        -0.4224 
     55 C         -78.0488   22.7427  -77.3216 C.2       3 UNK         0.4895 
     56 O         -76.8307   22.6716  -77.4800 O.2       3 UNK        -0.5091 
     57 CA        -78.8815   23.5994  -78.2929 C.3       3 UNK         0.0250 
     58 CB        -79.2001   22.8014  -79.5672 C.3       3 UNK        -0.1996 
     59 N         -80.1311   24.1395  -77.7346 N.am      3 UNK        -0.4254 
     60 C         -80.2368   24.8930  -76.6297 C.2       2 UNK         0.5004 
     61 O         -79.2765   25.1688  -75.9062 O.2       2 UNK        -0.5226 
     62 CA        -81.6511   25.3997  -76.2926 C.3       2 UNK         0.0269 
     63 CB        -82.5869   24.2377  -75.8959 C.3       2 UNK        -0.1926 
     64 N         -81.6612   26.4617  -75.2754 N.am      2 UNK        -0.4687 
     65 C         -81.3478   26.3770  -73.9710 C.2       1 UNK         0.5165 
     66 O         -81.0410   25.3285  -73.3992 O.2       1 UNK        -0.5079 
     67 H67       -85.3136   29.8959  -73.3784 H         1 UNK         0.0900 
     68 H68       -84.0683   30.3719  -74.5337 H         1 UNK         0.0900 
     69 H69       -85.2589   29.1465  -74.9762 H         1 UNK         0.0900 
     70 H70       -82.0921   29.4871  -74.0625 H         1 UNK         0.2959 
     71 H71       -80.4349   28.1791  -73.4175 H         1 UNK         0.1079 
     72 H72       -80.5765   26.8592  -71.3343 H         1 UNK         0.0837 
     73 H73       -82.3110   26.9039  -71.3662 H         1 UNK         0.0837 
     74 H74       -80.5535   30.4095  -72.3451 H         1 UNK         0.0685 
     75 H75       -80.0667   30.9743  -70.7713 H         1 UNK         0.0685 
     76 H76       -78.8917   28.0487  -69.9628 H         1 UNK         0.1434 
     77 H77       -75.1973   28.0434  -72.1256 H         1 UNK         0.1329 
     78 H78       -78.2914   30.8092  -73.1916 H         1 UNK         0.1335 
     79 H79       -75.0088   29.3620  -74.1726 H         1 UNK         0.0680 
     80 H80       -76.3720   30.2935  -74.7405 H         1 UNK         0.0680 
     81 H81       -73.5209   31.5302  -71.4180 H         1 UNK         0.1032 
     82 H82       -73.6946   29.9424  -72.1087 H         1 UNK         0.1032 
     83 H83       -72.0896   32.2463  -73.3317 H         1 UNK         0.0461 
     84 H84       -69.5176   31.4250  -71.0423 H         1 UNK         0.3453 
     85 H85       -70.4828   32.6679  -71.7948 H         1 UNK         0.3453 
     86 H86       -72.8335   29.6998  -74.4882 H         1 UNK         0.2984 
     87 H87       -72.4184   30.0934  -77.1292 H         1 UNK         0.0554 
     88 H88       -70.4966   29.3244  -78.5354 H         1 UNK         0.0847 
     89 H89       -69.3757   29.7444  -77.2410 H         1 UNK         0.0847 
     90 H90       -70.3133   30.9978  -78.0369 H         1 UNK         0.0847 
     91 H91       -72.5410   27.9716  -76.5692 H         1 UNK         0.3141 
     92 H92       -70.3764   25.5107  -75.4921 H         1 UNK         0.0743 
     93 H93       -72.3459   26.7267  -73.4806 H         1 UNK         0.0784 
     94 H94       -71.8787   25.0260  -73.5260 H         1 UNK         0.0784 
     95 H95       -70.6835   26.2635  -73.1683 H         1 UNK         0.0784 
     96 H96       -73.2727   25.7238  -75.6092 H         1 UNK         0.3213 
     97 H97       -73.5484   25.5662  -79.0920 H         1 UNK         0.0855 
     98 H98       -73.8842   23.0188  -77.4167 H         1 UNK         0.0814 
     99 H99       -72.8724   23.1566  -78.8489 H         1 UNK         0.0814 
    100 H100      -74.6113   23.3390  -78.9909 H         1 UNK         0.0814 
    101 H101      -75.4810   24.8776  -77.1341 H         1 UNK         0.3105 
    102 H102      -76.1203   28.0350  -75.7489 H         1 UNK         0.0547 
    103 H103      -77.3014   28.3454  -77.9065 H         1 UNK         0.0837 
    104 H104      -77.8244   26.6688  -77.8875 H         1 UNK         0.0837 
    105 H105      -78.4087   27.7925  -76.6612 H         1 UNK         0.0837 
    106 H106      -77.6502   25.7040  -75.5269 H         1 UNK         0.3020 
    107 H107      -75.4997   23.9076  -73.3100 H         1 UNK         0.1245 
    108 H108      -77.6292   24.1381  -71.7828 H         1 UNK         0.0781 
    109 H109      -77.7380   25.7611  -72.4006 H         1 UNK         0.0781 
    110 H110      -75.7979   27.1480  -69.3652 H         1 UNK         0.0836 
    111 H111      -77.3474   26.3537  -69.4988 H         1 UNK         0.0836 
    112 H112      -78.0470   23.9813  -74.8327 H         1 UNK         0.3022 
    113 H113      -77.5263   20.5870  -75.6552 H         1 UNK         0.0747 
    114 H114      -79.8619   20.1337  -74.9371 H         1 UNK         0.0793 
    115 H115      -78.8070   20.2018  -73.5362 H         1 UNK         0.0793 
    116 H116      -79.8514   21.5668  -73.9068 H         1 UNK         0.0793 
    117 H117      -79.7099   22.2823  -76.2748 H         1 UNK         0.3047 
    118 H118      -78.2585   24.4495  -78.5752 H         1 UNK         0.0822 
    119 H119      -79.6857   23.4259  -80.3174 H         1 UNK         0.0807 
    120 H120      -79.8539   21.9532  -79.3598 H         1 UNK         0.0807 
    121 H121      -78.2888   22.4071  -80.0199 H         1 UNK         0.0807 
    122 H122      -80.9684   23.9517  -78.2677 H         1 UNK         0.2946 
    123 H123      -82.0465   25.8570  -77.2013 H         1 UNK         0.1144 
    124 H124      -83.5729   24.6046  -75.6101 H         1 UNK         0.0793 
    125 H125      -82.1915   23.6599  -75.0599 H         1 UNK         0.0793 
    126 H126      -82.7320   23.5445  -76.7250 H         1 UNK         0.0793 
    127 H127      -81.8896   27.3821  -75.6235 H         1 UNK         0.2896 
@<TRIPOS>BOND
     1    1    2 1    
     2    1   67 1    
     3    1   68 1    
     4    1   69 1    
     5    2    3 2    
     6    2    4 am   BACKBONE|DICT|INTERRES
     7    4    5 1    
     8    4   70 1    
     9    5    6 1    
    10    5   65 1    
    11    5   71 1    
    12    6    7 1    
    13    6   72 1    
    14    6   73 1    
    15    7    8 1    
    16    8    9 1    
    17    8   74 1    
    18    8   75 1    
    19    9   10 ar   
    20    9   14 ar   
    21   10   11 ar   
    22   10   76 1    
    23   11   12 ar   
    24   11   48 1    
    25   12   13 ar   
    26   12   77 1    
    27   13   14 ar   
    28   13   15 1    
    29   14   78 1    
    30   15   16 1    
    31   15   79 1    
    32   15   80 1    
    33   16   17 1    
    34   17   18 1    
    35   17   81 1    
    36   17   82 1    
    37   18   19 1    
    38   18   22 1    
    39   18   83 1    
    40   19   20 am   BACKBONE|DICT|INTERRES
    41   19   21 2    
    42   20   84 1    
    43   20   85 1    
    44   22   23 am   BACKBONE|DICT|INTERRES
    45   22   86 1    
    46   23   24 2    
    47   23   25 1    
    48   25   26 1    
    49   25   27 1    
    50   25   87 1    
    51   26   88 1    
    52   26   89 1    
    53   26   90 1    
    54   27   28 am   BACKBONE|DICT|INTERRES
    55   27   91 1    
    56   28   29 2    
    57   28   30 1    
    58   30   31 1    
    59   30   32 1    
    60   30   92 1    
    61   31   93 1    
    62   31   94 1    
    63   31   95 1    
    64   32   33 am   BACKBONE|DICT|INTERRES
    65   32   96 1    
    66   33   34 2    
    67   33   35 1    
    68   35   36 1    
    69   35   37 1    
    70   35   97 1    
    71   36   98 1    
    72   36   99 1    
    73   36  100 1    
    74   37   38 am   BACKBONE|DICT|INTERRES
    75   37  101 1    
    76   38   39 2    
    77   38   40 1    
    78   40   41 1    
    79   40   42 1    
    80   40  102 1    
    81   41  103 1    
    82   41  104 1    
    83   41  105 1    
    84   42   43 am   BACKBONE|DICT|INTERRES
    85   42  106 1    
    86   43   44 2    
    87   43   45 1    
    88   45   46 1    
    89   45   49 1    
    90   45  107 1    
    91   46   47 1    
    92   46  108 1    
    93   46  109 1    
    94   47   48 1    
    95   48  110 1    
    96   48  111 1    
    97   49   50 am   BACKBONE|DICT|INTERRES
    98   49  112 1    
    99   50   51 2    
   100   50   52 1    
   101   52   53 1    
   102   52   54 1    
   103   52  113 1    
   104   53  114 1    
   105   53  115 1    
   106   53  116 1    
   107   54   55 am   BACKBONE|DICT|INTERRES
   108   54  117 1    
   109   55   56 2    
   110   55   57 1    
   111   57   58 1    
   112   57   59 1    
   113   57  118 1    
   114   58  119 1    
   115   58  120 1    
   116   58  121 1    
   117   59   60 am   BACKBONE|DICT|INTERRES
   118   59  122 1    
   119   60   61 2    
   120   60   62 1    
   121   62   63 1    
   122   62   64 1    
   123   62  123 1    
   124   63  124 1    
   125   63  125 1    
   126   63  126 1    
   127   64   65 am   BACKBONE|DICT|INTERRES
   128   64  127 1    
   129   65   66 2    
@<TRIPOS>SUBSTRUCTURE
     1 UNK         1 GROUP             0       ****    0 ROOT    
