@<TRIPOS>MOLECULE
3R135
127   129    1
SMALL
USER_CHARGES


@<TRIPOS>ATOM
      1 CA        -81.8852   31.0974  -75.8385 C.3       0 UNK        -0.1998 
      2 C         -81.2910   29.9083  -75.0988 C.2       0 UNK         0.4909 
      3 O         -80.2682   29.3747  -75.5245 O.2       0 UNK        -0.5240 
      4 N         -81.9191   29.4983  -73.9901 N.am      1 UNK        -0.4739 
      5 CA        -81.5266   28.3376  -73.1838 C.3       1 UNK         0.0864 
      6 C6        -82.1297   28.4426  -71.7595 C.3       11 UNK        -0.0881 
      7 S7        -81.1891   27.5289  -70.4899 S.3       11 UNK        -0.2682 
      8 C8        -80.0047   28.7849  -69.8998 C.3       11 UNK         0.0289 
      9 C9        -78.7307   28.7650  -70.7299 C.ar      11 UNK        -0.0687 
     10 C10       -77.7320   27.8304  -70.4421 C.ar      11 UNK        -0.0823 
     11 C11       -76.5845   27.7492  -71.2357 C.ar      11 UNK        -0.0830 
     12 C12       -76.4407   28.6143  -72.3232 C.ar      11 UNK        -0.1021 
     13 C13       -77.4127   29.5806  -72.5971 C.ar      11 UNK        -0.0753 
     14 C14       -78.5530   29.6577  -71.7917 C.ar      11 UNK        -0.0933 
     15 C15       -77.2427   30.5184  -73.7830 C.3       11 UNK         0.0166 
     16 S16       -76.4303   32.0882  -73.3334 S.3       11 UNK        -0.2615 
     17 C17       -74.7627   31.5585  -72.8028 C.3       11 UNK        -0.0865 
     18 CA        -73.8376   31.1138  -73.9725 C.3       10 UNK         0.0862 
     19 C         -73.1052   32.3248  -74.6268 C.2       10 UNK         0.5551 
     20 N         -71.7889   32.4478  -74.5016 N.am      10 UNK        -0.7319 
     21 O         -73.7384   33.1609  -75.2657 O.2       10 UNK        -0.5018 
     22 N         -72.9566   30.0068  -73.5558 N.am      10 UNK        -0.4509 
     23 C         -72.3267   29.1735  -74.3960 C.2       10 UNK         0.4899 
     24 O         -72.4302   29.2378  -75.6200 O.2       10 UNK        -0.4839 
     25 CA        -71.4032   28.1069  -73.7853 C.3       9 UNK         0.0222 
     26 CB        -71.4858   27.9855  -72.2484 C.3       9 UNK        -0.1966 
     27 N         -71.6964   26.8114  -74.3956 N.am      9 UNK        -0.4218 
     28 C         -70.7895   25.8862  -74.7286 C.2       9 UNK         0.5020 
     29 O         -69.5748   26.0286  -74.5766 O.2       9 UNK        -0.5274 
     30 CA        -71.3185   24.5614  -75.3064 C.3       8 UNK         0.0270 
     31 CB        -71.7636   23.6237  -74.1718 C.3       8 UNK        -0.1976 
     32 N         -72.4170   24.7252  -76.2621 N.am      8 UNK        -0.4313 
     33 C         -72.2906   25.2477  -77.4908 C.2       8 UNK         0.5041 
     34 O         -71.2266   25.6593  -77.9550 O.2       8 UNK        -0.5577 
     35 CA        -73.5611   25.3098  -78.3561 C.3       7 UNK         0.0284 
     36 CB        -73.8624   23.9435  -78.9937 C.3       7 UNK        -0.1958 
     37 N         -74.7164   25.7633  -77.5822 N.am      7 UNK        -0.4454 
     38 C         -74.9597   27.0453  -77.2790 C.2       7 UNK         0.5089 
     39 O         -74.3329   27.9876  -77.7612 O.2       7 UNK        -0.5125 
     40 CA        -76.0882   27.3371  -76.2723 C.3       6 UNK         0.0408 
     41 CB        -77.3782   27.7313  -77.0047 C.3       6 UNK        -0.1791 
     42 N         -76.3764   26.2256  -75.3634 N.am      6 UNK        -0.4762 
     43 C         -75.5369   25.7543  -74.4316 C.2       6 UNK         0.5007 
     44 O         -74.4239   26.2303  -74.2139 O.2       6 UNK        -0.5032 
     45 CA        -75.9945   24.4988  -73.6645 C.3       5 UNK         0.0783 
     46 C46       -76.9535   24.8463  -72.4983 C.3       11 UNK        -0.0857 
     47 S47       -76.1004   25.0107  -70.8956 S.3       11 UNK        -0.2512 
     48 C48       -75.4966   26.7304  -70.9239 C.3       11 UNK         0.0225 
     49 N         -76.5867   23.5190  -74.5768 N.am      5 UNK        -0.4615 
     50 C         -75.9055   22.8339  -75.5029 C.2       4 UNK         0.5053 
     51 O         -74.6917   22.9411  -75.6738 O.2       4 UNK        -0.5105 
     52 CA        -76.7264   21.9084  -76.4159 C.3       4 UNK         0.0263 
     53 CB        -76.9399   20.5411  -75.7479 C.3       4 UNK        -0.1981 
     54 N         -78.0231   22.4877  -76.7804 N.am      4 UNK        -0.4224 
     55 C         -78.1671   23.5602  -77.5718 C.2       3 UNK         0.4895 
     56 O         -77.2269   24.1408  -78.1128 O.2       3 UNK        -0.5091 
     57 CA        -79.5948   24.0995  -77.7657 C.3       3 UNK         0.0250 
     58 CB        -80.3093   23.3379  -78.8936 C.3       3 UNK        -0.1996 
     59 N         -80.4260   24.0807  -76.5545 N.am      3 UNK        -0.4254 
     60 C         -80.1289   24.7139  -75.4112 C.2       2 UNK         0.5004 
     61 O         -79.0573   25.2871  -75.2023 O.2       2 UNK        -0.5226 
     62 CA        -81.1847   24.6752  -74.2976 C.3       2 UNK         0.0269 
     63 CB        -80.8974   23.5256  -73.3191 C.3       2 UNK        -0.1926 
     64 N         -81.1547   25.9446  -73.5707 N.am      2 UNK        -0.4687 
     65 C         -81.8890   27.0152  -73.8948 C.2       1 UNK         0.5165 
     66 O         -82.8148   26.9846  -74.7113 O.2       1 UNK        -0.5079 
     67 H67       -82.7783   31.4807  -75.3453 H         1 UNK         0.0900 
     68 H68       -82.1555   30.8091  -76.8540 H         1 UNK         0.0900 
     69 H69       -81.1560   31.9051  -75.8958 H         1 UNK         0.0900 
     70 H70       -82.7780   29.9525  -73.7144 H         1 UNK         0.2959 
     71 H71       -80.4391   28.3580  -73.1096 H         1 UNK         0.1079 
     72 H72       -83.1642   28.0934  -71.7480 H         1 UNK         0.0837 
     73 H73       -82.1780   29.4865  -71.4453 H         1 UNK         0.0837 
     74 H74       -80.4589   29.7767  -69.9050 H         1 UNK         0.0685 
     75 H75       -79.7612   28.5716  -68.8579 H         1 UNK         0.0685 
     76 H76       -77.8594   27.1464  -69.6139 H         1 UNK         0.1434 
     77 H77       -75.5643   28.5458  -72.9536 H         1 UNK         0.1329 
     78 H78       -79.3160   30.3919  -72.0123 H         1 UNK         0.1335 
     79 H79       -76.6830   30.0279  -74.5784 H         1 UNK         0.0680 
     80 H80       -78.2206   30.7464  -74.2093 H         1 UNK         0.0680 
     81 H81       -74.8836   30.7615  -72.0706 H         1 UNK         0.1032 
     82 H82       -74.3074   32.3743  -72.2378 H         1 UNK         0.1032 
     83 H83       -74.4688   30.7005  -74.7608 H         1 UNK         0.0461 
     84 H84       -71.2581   31.7653  -73.9854 H         1 UNK         0.3453 
     85 H85       -71.3226   33.2305  -74.9326 H         1 UNK         0.3453 
     86 H86       -72.7915   29.9105  -72.5650 H         1 UNK         0.2984 
     87 H87       -70.3874   28.4092  -74.0476 H         1 UNK         0.0554 
     88 H88       -71.1946   28.9141  -71.7561 H         1 UNK         0.0847 
     89 H89       -72.4905   27.7251  -71.9153 H         1 UNK         0.0847 
     90 H90       -70.8099   27.2128  -71.8816 H         1 UNK         0.0847 
     91 H91       -72.6856   26.6083  -74.5408 H         1 UNK         0.3141 
     92 H92       -70.4917   24.0804  -75.8334 H         1 UNK         0.0743 
     93 H93       -70.9523   23.4566  -73.4620 H         1 UNK         0.0784 
     94 H94       -72.6050   24.0364  -73.6144 H         1 UNK         0.0784 
     95 H95       -72.0632   22.6488  -74.5570 H         1 UNK         0.0784 
     96 H96       -73.3173   24.3444  -75.9866 H         1 UNK         0.3213 
     97 H97       -73.3800   26.0209  -79.1654 H         1 UNK         0.0855 
     98 H98       -73.0261   23.6097  -79.6092 H         1 UNK         0.0814 
     99 H99       -74.7404   23.9934  -79.6381 H         1 UNK         0.0814 
    100 H100      -74.0428   23.1724  -78.2451 H         1 UNK         0.0814 
    101 H101      -75.3476   25.0561  -77.2274 H         1 UNK         0.3105 
    102 H102      -75.7641   28.1827  -75.6638 H         1 UNK         0.0547 
    103 H103      -77.2194   28.6068  -77.6353 H         1 UNK         0.0837 
    104 H104      -77.7389   26.9257  -77.6446 H         1 UNK         0.0837 
    105 H105      -78.1712   27.9773  -76.2992 H         1 UNK         0.0837 
    106 H106      -77.3011   25.8031  -75.4374 H         1 UNK         0.3020 
    107 H107      -75.0963   24.0327  -73.2524 H         1 UNK         0.1245 
    108 H108      -77.6648   24.0332  -72.3519 H         1 UNK         0.0781 
    109 H109      -77.5712   25.7215  -72.7093 H         1 UNK         0.0781 
    110 H110      -74.6801   26.8010  -71.6421 H         1 UNK         0.0836 
    111 H111      -75.0630   26.9653  -69.9511 H         1 UNK         0.0836 
    112 H112      -77.5919   23.4336  -74.5536 H         1 UNK         0.3022 
    113 H113      -76.1528   21.7546  -77.3327 H         1 UNK         0.0747 
    114 H114      -77.4536   19.8495  -76.4160 H         1 UNK         0.0793 
    115 H115      -75.9850   20.0841  -75.4837 H         1 UNK         0.0793 
    116 H116      -77.5266   20.6226  -74.8320 H         1 UNK         0.0793 
    117 H117      -78.8495   22.0649  -76.3834 H         1 UNK         0.3047 
    118 H118      -79.5015   25.1435  -78.0720 H         1 UNK         0.0822 
    119 H119      -81.2748   23.7872  -79.1270 H         1 UNK         0.0807 
    120 H120      -80.4788   22.2923  -78.6335 H         1 UNK         0.0807 
    121 H121      -79.7182   23.3538  -79.8106 H         1 UNK         0.0807 
    122 H122      -81.3186   23.6141  -76.6328 H         1 UNK         0.2946 
    123 H123      -82.1713   24.5204  -74.7410 H         1 UNK         0.1144 
    124 H124      -81.6495   23.4830  -72.5311 H         1 UNK         0.0793 
    125 H125      -79.9234   23.6308  -72.8423 H         1 UNK         0.0793 
    126 H126      -80.9102   22.5620  -73.8301 H         1 UNK         0.0793 
    127 H127      -80.4026   26.0585  -72.9060 H         1 UNK         0.2896 
@<TRIPOS>BOND
     1    1    2 1    
     2    1   67 1    
     3    1   68 1    
     4    1   69 1    
     5    2    3 2    
     6    2    4 am   BACKBONE|DICT|INTERRES
     7    4    5 1    
     8    4   70 1    
     9    5    6 1    
    10    5   65 1    
    11    5   71 1    
    12    6    7 1    
    13    6   72 1    
    14    6   73 1    
    15    7    8 1    
    16    8    9 1    
    17    8   74 1    
    18    8   75 1    
    19    9   10 ar   
    20    9   14 ar   
    21   10   11 ar   
    22   10   76 1    
    23   11   12 ar   
    24   11   48 1    
    25   12   13 ar   
    26   12   77 1    
    27   13   14 ar   
    28   13   15 1    
    29   14   78 1    
    30   15   16 1    
    31   15   79 1    
    32   15   80 1    
    33   16   17 1    
    34   17   18 1    
    35   17   81 1    
    36   17   82 1    
    37   18   19 1    
    38   18   22 1    
    39   18   83 1    
    40   19   20 am   BACKBONE|DICT|INTERRES
    41   19   21 2    
    42   20   84 1    
    43   20   85 1    
    44   22   23 am   BACKBONE|DICT|INTERRES
    45   22   86 1    
    46   23   24 2    
    47   23   25 1    
    48   25   26 1    
    49   25   27 1    
    50   25   87 1    
    51   26   88 1    
    52   26   89 1    
    53   26   90 1    
    54   27   28 am   BACKBONE|DICT|INTERRES
    55   27   91 1    
    56   28   29 2    
    57   28   30 1    
    58   30   31 1    
    59   30   32 1    
    60   30   92 1    
    61   31   93 1    
    62   31   94 1    
    63   31   95 1    
    64   32   33 am   BACKBONE|DICT|INTERRES
    65   32   96 1    
    66   33   34 2    
    67   33   35 1    
    68   35   36 1    
    69   35   37 1    
    70   35   97 1    
    71   36   98 1    
    72   36   99 1    
    73   36  100 1    
    74   37   38 am   BACKBONE|DICT|INTERRES
    75   37  101 1    
    76   38   39 2    
    77   38   40 1    
    78   40   41 1    
    79   40   42 1    
    80   40  102 1    
    81   41  103 1    
    82   41  104 1    
    83   41  105 1    
    84   42   43 am   BACKBONE|DICT|INTERRES
    85   42  106 1    
    86   43   44 2    
    87   43   45 1    
    88   45   46 1    
    89   45   49 1    
    90   45  107 1    
    91   46   47 1    
    92   46  108 1    
    93   46  109 1    
    94   47   48 1    
    95   48  110 1    
    96   48  111 1    
    97   49   50 am   BACKBONE|DICT|INTERRES
    98   49  112 1    
    99   50   51 2    
   100   50   52 1    
   101   52   53 1    
   102   52   54 1    
   103   52  113 1    
   104   53  114 1    
   105   53  115 1    
   106   53  116 1    
   107   54   55 am   BACKBONE|DICT|INTERRES
   108   54  117 1    
   109   55   56 2    
   110   55   57 1    
   111   57   58 1    
   112   57   59 1    
   113   57  118 1    
   114   58  119 1    
   115   58  120 1    
   116   58  121 1    
   117   59   60 am   BACKBONE|DICT|INTERRES
   118   59  122 1    
   119   60   61 2    
   120   60   62 1    
   121   62   63 1    
   122   62   64 1    
   123   62  123 1    
   124   63  124 1    
   125   63  125 1    
   126   63  126 1    
   127   64   65 am   BACKBONE|DICT|INTERRES
   128   64  127 1    
   129   65   66 2    
@<TRIPOS>SUBSTRUCTURE
     1 UNK         1 GROUP             0       ****    0 ROOT    
