@<TRIPOS>MOLECULE
3R135
127   129    1
SMALL
USER_CHARGES


@<TRIPOS>ATOM
      1 CA        -84.6121   30.2687  -74.9488 C.3       0 UNK        -0.1998 
      2 C         -83.5279   29.2906  -75.3752 C.2       0 UNK         0.4909 
      3 O         -83.5441   28.8157  -76.5111 O.2       0 UNK        -0.5240 
      4 N         -82.5845   28.9882  -74.4731 N.am      1 UNK        -0.4739 
      5 CA        -81.4635   28.0664  -74.7043 C.3       1 UNK         0.0864 
      6 C6        -80.3957   28.1750  -73.5898 C.3       11 UNK        -0.0881 
      7 S7        -79.6005   29.8172  -73.5346 S.3       11 UNK        -0.2682 
      8 C8        -77.9379   29.4591  -74.1901 C.3       11 UNK         0.0289 
      9 C9        -77.1123   28.6210  -73.2236 C.ar      11 UNK        -0.0687 
     10 C10       -76.9610   27.2470  -73.4320 C.ar      11 UNK        -0.0823 
     11 C11       -76.2012   26.4733  -72.5508 C.ar      11 UNK        -0.0830 
     12 C12       -75.5814   27.0850  -71.4571 C.ar      11 UNK        -0.1021 
     13 C13       -75.7224   28.4594  -71.2386 C.ar      11 UNK        -0.0753 
     14 C14       -76.4922   29.2214  -72.1238 C.ar      11 UNK        -0.0933 
     15 C15       -75.0591   29.1122  -70.0335 C.3       11 UNK         0.0166 
     16 S16       -73.3167   29.5393  -70.3525 S.3       11 UNK        -0.2615 
     17 C17       -73.4770   30.9882  -71.4542 C.3       11 UNK        -0.0865 
     18 CA        -73.1845   30.6453  -72.9435 C.3       10 UNK         0.0862 
     19 C         -73.5654   31.7992  -73.9211 C.2       10 UNK         0.5551 
     20 N         -72.8525   32.0004  -75.0247 N.am      10 UNK        -0.7319 
     21 O         -74.5463   32.5041  -73.6979 O.2       10 UNK        -0.5018 
     22 N         -71.8416   30.0834  -73.1636 N.am      10 UNK        -0.4509 
     23 C         -70.6695   30.7091  -72.9826 C.2       10 UNK         0.4899 
     24 O         -70.5557   31.8325  -72.4917 O.2       10 UNK        -0.4839 
     25 CA        -69.3987   29.9763  -73.4596 C.3       9 UNK         0.0222 
     26 CB        -68.7048   29.2847  -72.2751 C.3       9 UNK        -0.1966 
     27 N         -69.6403   28.9914  -74.5200 N.am      9 UNK        -0.4218 
     28 C         -70.1334   29.2626  -75.7374 C.2       9 UNK         0.5020 
     29 O         -70.3794   30.4021  -76.1386 O.2       9 UNK        -0.5274 
     30 CA        -70.4807   28.0616  -76.6405 C.3       8 UNK         0.0270 
     31 CB        -69.8076   26.7349  -76.2202 C.3       8 UNK        -0.1976 
     32 N         -71.9347   27.8876  -76.7426 N.am      8 UNK        -0.4313 
     33 C         -72.8073   27.7595  -75.7333 C.2       8 UNK         0.5041 
     34 O         -72.4802   27.6870  -74.5486 O.2       8 UNK        -0.5577 
     35 CA        -74.2990   27.7269  -76.0956 C.3       7 UNK         0.0284 
     36 CB        -74.7812   29.0644  -76.6904 C.3       7 UNK        -0.1958 
     37 N         -74.6848   26.5888  -76.9353 N.am      7 UNK        -0.4454 
     38 C         -74.3325   26.2976  -78.1960 C.2       7 UNK         0.5089 
     39 O         -73.5798   26.9957  -78.8782 O.2       7 UNK        -0.5125 
     40 CA        -74.9628   25.0263  -78.8042 C.3       6 UNK         0.0408 
     41 CB        -74.0362   24.3235  -79.8191 C.3       6 UNK        -0.1791 
     42 N         -75.4888   24.1003  -77.7873 N.am      6 UNK        -0.4762 
     43 C         -74.7979   23.3149  -76.9424 C.2       6 UNK         0.5007 
     44 O         -73.5799   23.1477  -77.0072 O.2       6 UNK        -0.5032 
     45 CA        -75.5893   22.6428  -75.7910 C.3       5 UNK         0.0783 
     46 C46       -74.9548   22.9106  -74.3974 C.3       11 UNK        -0.0857 
     47 S47       -74.7177   24.6766  -73.9908 S.3       11 UNK        -0.2512 
     48 C48       -76.0448   24.9811  -72.7944 C.3       11 UNK         0.0225 
     49 N         -77.0228   22.9758  -75.8019 N.am      5 UNK        -0.4615 
     50 C         -77.9397   22.3518  -76.5534 C.2       4 UNK         0.5053 
     51 O         -77.6616   21.4393  -77.3329 O.2       4 UNK        -0.5105 
     52 CA        -79.3970   22.8481  -76.4385 C.3       4 UNK         0.0263 
     53 CB        -80.4128   21.8352  -77.0085 C.3       4 UNK        -0.1981 
     54 N         -79.8107   23.2646  -75.0908 N.am      4 UNK        -0.4224 
     55 C         -79.7951   22.5244  -73.9678 C.2       3 UNK         0.4895 
     56 O         -79.2746   21.4121  -73.8811 O.2       3 UNK        -0.5091 
     57 CA        -80.5059   23.1065  -72.7275 C.3       3 UNK         0.0250 
     58 CB        -79.5025   23.8106  -71.7996 C.3       3 UNK        -0.1996 
     59 N         -81.5906   24.0380  -73.0501 N.am      3 UNK        -0.4254 
     60 C         -82.7099   23.7284  -73.7215 C.2       2 UNK         0.5004 
     61 O         -83.0243   22.5789  -74.0314 O.2       2 UNK        -0.5226 
     62 CA        -83.6247   24.8953  -74.1471 C.3       2 UNK         0.0269 
     63 CB        -84.8855   24.9373  -73.2679 C.3       2 UNK        -0.1926 
     64 N         -82.9973   26.2254  -74.1414 N.am      2 UNK        -0.4687 
     65 C         -81.9173   26.5987  -74.8471 C.2       1 UNK         0.5165 
     66 O         -81.2643   25.8298  -75.5551 O.2       1 UNK        -0.5079 
     67 H67       -84.4706   30.6138  -73.9248 H         1 UNK         0.0900 
     68 H68       -85.5914   29.7955  -75.0151 H         1 UNK         0.0900 
     69 H69       -84.6094   31.1400  -75.6032 H         1 UNK         0.0900 
     70 H70       -82.6029   29.4342  -73.5666 H         1 UNK         0.2959 
     71 H71       -80.9972   28.3401  -75.6537 H         1 UNK         0.1079 
     72 H72       -79.6329   27.4087  -73.7202 H         1 UNK         0.0837 
     73 H73       -80.8402   27.9827  -72.6113 H         1 UNK         0.0837 
     74 H74       -78.0276   28.9620  -75.1573 H         1 UNK         0.0685 
     75 H75       -77.4229   30.4022  -74.3800 H         1 UNK         0.0685 
     76 H76       -77.4279   26.7779  -74.2868 H         1 UNK         0.1434 
     77 H77       -74.9837   26.4934  -70.7771 H         1 UNK         0.1329 
     78 H78       -76.6118   30.2835  -71.9592 H         1 UNK         0.1335 
     79 H79       -75.6084   30.0032  -69.7252 H         1 UNK         0.0680 
     80 H80       -75.0985   28.4278  -69.1847 H         1 UNK         0.0680 
     81 H81       -72.8010   31.7681  -71.1016 H         1 UNK         0.1032 
     82 H82       -74.4798   31.4025  -71.3423 H         1 UNK         0.1032 
     83 H83       -73.8636   29.8383  -73.2199 H         1 UNK         0.0461 
     84 H84       -73.1170   32.7443  -75.6502 H         1 UNK         0.3453 
     85 H85       -72.0421   31.4308  -75.2345 H         1 UNK         0.3453 
     86 H86       -71.8444   29.1585  -73.5898 H         1 UNK         0.2984 
     87 H87       -68.7192   30.7305  -73.8616 H         1 UNK         0.0554 
     88 H88       -67.7597   28.8316  -72.5750 H         1 UNK         0.0847 
     89 H89       -69.3313   28.5045  -71.8404 H         1 UNK         0.0847 
     90 H90       -68.4813   30.0003  -71.4825 H         1 UNK         0.0847 
     91 H91       -69.5209   28.0200  -74.2711 H         1 UNK         0.3141 
     92 H92       -70.1230   28.3140  -77.6397 H         1 UNK         0.0743 
     93 H93       -70.1695   26.3683  -75.2590 H         1 UNK         0.0784 
     94 H94       -70.0007   25.9544  -76.9565 H         1 UNK         0.0784 
     95 H95       -68.7245   26.8457  -76.1512 H         1 UNK         0.0784 
     96 H96       -72.3253   27.8814  -77.6816 H         1 UNK         0.3213 
     97 H97       -74.8311   27.5895  -75.1543 H         1 UNK         0.0855 
     98 H98       -74.5694   29.8889  -76.0104 H         1 UNK         0.0814 
     99 H99       -75.8580   29.0557  -76.8580 H         1 UNK         0.0814 
    100 H100      -74.2973   29.2951  -77.6396 H         1 UNK         0.0814 
    101 H101      -75.2570   25.9012  -76.4674 H         1 UNK         0.3105 
    102 H102      -75.8361   25.3723  -79.3590 H         1 UNK         0.0547 
    103 H103      -73.8309   24.9732  -80.6707 H         1 UNK         0.0837 
    104 H104      -73.0734   24.0605  -79.3808 H         1 UNK         0.0837 
    105 H105      -74.4900   23.4131  -80.2099 H         1 UNK         0.0837 
    106 H106      -76.4901   24.1325  -77.6563 H         1 UNK         0.3020 
    107 H107      -75.4970   21.5687  -75.9703 H         1 UNK         0.1245 
    108 H108      -73.9743   22.4336  -74.3458 H         1 UNK         0.0781 
    109 H109      -75.5470   22.4299  -73.6169 H         1 UNK         0.0781 
    110 H110      -75.8262   24.4567  -71.8627 H         1 UNK         0.0836 
    111 H111      -76.9777   24.5668  -73.1746 H         1 UNK         0.0836 
    112 H112      -77.3221   23.7144  -75.1844 H         1 UNK         0.3022 
    113 H113      -79.4537   23.7454  -77.0564 H         1 UNK         0.0747 
    114 H114      -81.4308   22.2211  -76.9512 H         1 UNK         0.0793 
    115 H115      -80.2093   21.6185  -78.0580 H         1 UNK         0.0793 
    116 H116      -80.3836   20.8886  -76.4674 H         1 UNK         0.0793 
    117 H117      -80.2743   24.1684  -75.0553 H         1 UNK         0.3047 
    118 H118      -80.9415   22.2647  -72.1849 H         1 UNK         0.0822 
    119 H119      -79.9611   24.0610  -70.8427 H         1 UNK         0.0807 
    120 H120      -79.1257   24.7350  -72.2376 H         1 UNK         0.0807 
    121 H121      -78.6453   23.1702  -71.5860 H         1 UNK         0.0807 
    122 H122      -81.4418   25.0076  -72.8148 H         1 UNK         0.2946 
    123 H123      -83.9306   24.6884  -75.1751 H         1 UNK         0.1144 
    124 H124      -85.3997   23.9750  -73.2734 H         1 UNK         0.0793 
    125 H125      -85.5963   25.6820  -73.6269 H         1 UNK         0.0793 
    126 H126      -84.6456   25.1724  -72.2302 H         1 UNK         0.0793 
    127 H127      -83.4568   26.9340  -73.5874 H         1 UNK         0.2896 
@<TRIPOS>BOND
     1    1    2 1    
     2    1   67 1    
     3    1   68 1    
     4    1   69 1    
     5    2    3 2    
     6    2    4 am   BACKBONE|DICT|INTERRES
     7    4    5 1    
     8    4   70 1    
     9    5    6 1    
    10    5   65 1    
    11    5   71 1    
    12    6    7 1    
    13    6   72 1    
    14    6   73 1    
    15    7    8 1    
    16    8    9 1    
    17    8   74 1    
    18    8   75 1    
    19    9   10 ar   
    20    9   14 ar   
    21   10   11 ar   
    22   10   76 1    
    23   11   12 ar   
    24   11   48 1    
    25   12   13 ar   
    26   12   77 1    
    27   13   14 ar   
    28   13   15 1    
    29   14   78 1    
    30   15   16 1    
    31   15   79 1    
    32   15   80 1    
    33   16   17 1    
    34   17   18 1    
    35   17   81 1    
    36   17   82 1    
    37   18   19 1    
    38   18   22 1    
    39   18   83 1    
    40   19   20 am   BACKBONE|DICT|INTERRES
    41   19   21 2    
    42   20   84 1    
    43   20   85 1    
    44   22   23 am   BACKBONE|DICT|INTERRES
    45   22   86 1    
    46   23   24 2    
    47   23   25 1    
    48   25   26 1    
    49   25   27 1    
    50   25   87 1    
    51   26   88 1    
    52   26   89 1    
    53   26   90 1    
    54   27   28 am   BACKBONE|DICT|INTERRES
    55   27   91 1    
    56   28   29 2    
    57   28   30 1    
    58   30   31 1    
    59   30   32 1    
    60   30   92 1    
    61   31   93 1    
    62   31   94 1    
    63   31   95 1    
    64   32   33 am   BACKBONE|DICT|INTERRES
    65   32   96 1    
    66   33   34 2    
    67   33   35 1    
    68   35   36 1    
    69   35   37 1    
    70   35   97 1    
    71   36   98 1    
    72   36   99 1    
    73   36  100 1    
    74   37   38 am   BACKBONE|DICT|INTERRES
    75   37  101 1    
    76   38   39 2    
    77   38   40 1    
    78   40   41 1    
    79   40   42 1    
    80   40  102 1    
    81   41  103 1    
    82   41  104 1    
    83   41  105 1    
    84   42   43 am   BACKBONE|DICT|INTERRES
    85   42  106 1    
    86   43   44 2    
    87   43   45 1    
    88   45   46 1    
    89   45   49 1    
    90   45  107 1    
    91   46   47 1    
    92   46  108 1    
    93   46  109 1    
    94   47   48 1    
    95   48  110 1    
    96   48  111 1    
    97   49   50 am   BACKBONE|DICT|INTERRES
    98   49  112 1    
    99   50   51 2    
   100   50   52 1    
   101   52   53 1    
   102   52   54 1    
   103   52  113 1    
   104   53  114 1    
   105   53  115 1    
   106   53  116 1    
   107   54   55 am   BACKBONE|DICT|INTERRES
   108   54  117 1    
   109   55   56 2    
   110   55   57 1    
   111   57   58 1    
   112   57   59 1    
   113   57  118 1    
   114   58  119 1    
   115   58  120 1    
   116   58  121 1    
   117   59   60 am   BACKBONE|DICT|INTERRES
   118   59  122 1    
   119   60   61 2    
   120   60   62 1    
   121   62   63 1    
   122   62   64 1    
   123   62  123 1    
   124   63  124 1    
   125   63  125 1    
   126   63  126 1    
   127   64   65 am   BACKBONE|DICT|INTERRES
   128   64  127 1    
   129   65   66 2    
@<TRIPOS>SUBSTRUCTURE
     1 UNK         1 GROUP             0       ****    0 ROOT    
