@<TRIPOS>MOLECULE
3R135
127   129    1
SMALL
USER_CHARGES


@<TRIPOS>ATOM
      1 CA        -82.9018   21.4974  -72.8172 C.3       0 UNK        -0.1998 
      2 C         -81.9708   22.6993  -72.7901 C.2       0 UNK         0.4909 
      3 O         -80.9298   22.6744  -73.4473 O.2       0 UNK        -0.5240 
      4 N         -82.3492   23.7543  -72.0509 N.am      1 UNK        -0.4739 
      5 CA        -81.6010   25.0074  -71.8675 C.3       1 UNK         0.0864 
      6 C6        -80.3653   24.8125  -70.9461 C.3       11 UNK        -0.0881 
      7 S7        -79.7166   26.3761  -70.2543 S.3       11 UNK        -0.2682 
      8 C8        -78.0443   26.4341  -70.9831 C.3       11 UNK         0.0289 
      9 C9        -77.6488   27.8377  -71.4157 C.ar      11 UNK        -0.0687 
     10 C10       -78.4087   28.5002  -72.3814 C.ar      11 UNK        -0.0823 
     11 C11       -78.0229   29.7513  -72.8626 C.ar      11 UNK        -0.0830 
     12 C12       -76.8683   30.3536  -72.3565 C.ar      11 UNK        -0.1021 
     13 C13       -76.1062   29.7120  -71.3743 C.ar      11 UNK        -0.0753 
     14 C14       -76.5015   28.4537  -70.9053 C.ar      11 UNK        -0.0933 
     15 C15       -74.8540   30.3802  -70.8281 C.3       11 UNK         0.0166 
     16 S16       -73.3506   29.5853  -71.4717 S.3       11 UNK        -0.2615 
     17 C17       -72.1187   30.9163  -71.2639 C.3       11 UNK        -0.0865 
     18 CA        -71.6942   31.5297  -72.6314 C.3       10 UNK         0.0862 
     19 C         -70.8534   32.8349  -72.4751 C.2       10 UNK         0.5551 
     20 N         -69.9388   33.1419  -73.3872 N.am      10 UNK        -0.7319 
     21 O         -71.0526   33.6003  -71.5345 O.2       10 UNK        -0.5018 
     22 N         -71.1219   30.5268  -73.5522 N.am      10 UNK        -0.4509 
     23 C         -69.9794   29.8515  -73.3749 C.2       10 UNK         0.4899 
     24 O         -69.2323   29.9974  -72.4059 O.2       10 UNK        -0.4839 
     25 CA        -69.6376   28.8137  -74.4569 C.3       9 UNK         0.0222 
     26 CB        -68.1656   28.3631  -74.3990 C.3       9 UNK        -0.1966 
     27 N         -70.5003   27.6403  -74.3200 N.am      9 UNK        -0.4218 
     28 C         -71.7279   27.5225  -74.8402 C.2       9 UNK         0.5020 
     29 O         -72.2752   28.3984  -75.5148 O.2       9 UNK        -0.5274 
     30 CA        -72.4753   26.2154  -74.5247 C.3       8 UNK         0.0270 
     31 CB        -73.5706   26.4519  -73.4715 C.3       8 UNK        -0.1976 
     32 N         -73.0797   25.6148  -75.7138 N.am      8 UNK        -0.4313 
     33 C         -72.4066   25.1206  -76.7616 C.2       8 UNK         0.5041 
     34 O         -71.1782   25.1371  -76.8557 O.2       8 UNK        -0.5577 
     35 CA        -73.2294   24.4636  -77.8806 C.3       7 UNK         0.0284 
     36 CB        -73.5239   22.9954  -77.5290 C.3       7 UNK        -0.1958 
     37 N         -74.4966   25.1573  -78.1209 N.am      7 UNK        -0.4454 
     38 C         -74.7617   25.9204  -79.1897 C.2       7 UNK         0.5089 
     39 O         -73.9489   26.1461  -80.0874 O.2       7 UNK        -0.5125 
     40 CA        -76.1777   26.5196  -79.3074 C.3       6 UNK         0.0408 
     41 CB        -77.0241   25.6961  -80.2910 C.3       6 UNK        -0.1791 
     42 N         -76.8917   26.6131  -78.0324 N.am      6 UNK        -0.4762 
     43 C         -76.5980   27.4872  -77.0577 C.2       6 UNK         0.5007 
     44 O         -75.7064   28.3303  -77.1525 O.2       6 UNK        -0.5032 
     45 CA        -77.4193   27.3821  -75.7499 C.3       5 UNK         0.0783 
     46 C46       -78.6578   28.3154  -75.8103 C.3       11 UNK        -0.0857 
     47 S47       -78.2422   30.0832  -75.6050 S.3       11 UNK        -0.2512 
     48 C48       -78.8554   30.4451  -73.9294 C.3       11 UNK         0.0225 
     49 N         -77.8106   26.0034  -75.4089 N.am      5 UNK        -0.4615 
     50 C         -76.9977   24.9377  -75.3453 C.2       4 UNK         0.5053 
     51 O         -75.7828   24.9991  -75.5229 O.2       4 UNK        -0.5105 
     52 CA        -77.6325   23.5567  -75.1112 C.3       4 UNK         0.0263 
     53 CB        -77.5158   23.1444  -73.6395 C.3       4 UNK        -0.1981 
     54 N         -79.0298   23.4718  -75.5437 N.am      4 UNK        -0.4224 
     55 C         -79.4241   23.5232  -76.8253 C.2       3 UNK         0.4895 
     56 O         -78.6495   23.6340  -77.7764 O.2       3 UNK        -0.5091 
     57 CA        -80.9372   23.4853  -77.0866 C.3       3 UNK         0.0250 
     58 CB        -81.4993   22.0650  -76.9097 C.3       3 UNK        -0.1996 
     59 N         -81.6526   24.4220  -76.2191 N.am      3 UNK        -0.4254 
     60 C         -81.6353   25.7533  -76.3783 C.2       2 UNK         0.5004 
     61 O         -81.0869   26.3216  -77.3223 O.2       2 UNK        -0.5226 
     62 CA        -82.3337   26.6034  -75.3010 C.3       2 UNK         0.0269 
     63 CB        -83.7638   26.9553  -75.7408 C.3       2 UNK        -0.1926 
     64 N         -82.3769   25.9801  -73.9733 N.am      2 UNK        -0.4687 
     65 C         -81.3024   25.6788  -73.2290 C.2       1 UNK         0.5165 
     66 O         -80.1455   25.8509  -73.6149 O.2       1 UNK        -0.5079 
     67 H67       -83.2323   21.3023  -73.8369 H         1 UNK         0.0900 
     68 H68       -83.7845   21.6495  -72.1965 H         1 UNK         0.0900 
     69 H69       -82.3794   20.6130  -72.4536 H         1 UNK         0.0900 
     70 H70       -83.2281   23.7056  -71.5533 H         1 UNK         0.2959 
     71 H71       -82.2820   25.6839  -71.3478 H         1 UNK         0.1079 
     72 H72       -80.6502   24.1963  -70.0920 H         1 UNK         0.0837 
     73 H73       -79.5854   24.2471  -71.4518 H         1 UNK         0.0837 
     74 H74       -77.3306   26.0256  -70.2662 H         1 UNK         0.0685 
     75 H75       -77.9921   25.7997  -71.8667 H         1 UNK         0.0685 
     76 H76       -79.3002   28.0299  -72.7665 H         1 UNK         0.1434 
     77 H77       -76.5624   31.3210  -72.7312 H         1 UNK         0.1329 
     78 H78       -75.9011   27.9487  -70.1610 H         1 UNK         0.1335 
     79 H79       -74.8507   31.4388  -71.0930 H         1 UNK         0.0680 
     80 H80       -74.8513   30.3325  -69.7382 H         1 UNK         0.0680 
     81 H81       -71.2529   30.5127  -70.7372 H         1 UNK         0.1032 
     82 H82       -72.5314   31.6809  -70.6037 H         1 UNK         0.1032 
     83 H83       -72.6087   31.8677  -73.1202 H         1 UNK         0.0461 
     84 H84       -69.7750   32.5296  -74.1700 H         1 UNK         0.3453 
     85 H85       -69.4060   33.9917  -73.2880 H         1 UNK         0.3453 
     86 H86       -71.6867   30.2948  -74.3600 H         1 UNK         0.2984 
     87 H87       -69.8022   29.2770  -75.4322 H         1 UNK         0.0554 
     88 H88       -67.9307   27.6731  -75.2097 H         1 UNK         0.0847 
     89 H89       -67.9265   27.8669  -73.4574 H         1 UNK         0.0847 
     90 H90       -67.4932   29.2165  -74.4969 H         1 UNK         0.0847 
     91 H91       -70.1443   26.8892  -73.7460 H         1 UNK         0.3141 
     92 H92       -71.7665   25.4895  -74.1209 H         1 UNK         0.0743 
     93 H93       -74.1089   25.5325  -73.2401 H         1 UNK         0.0784 
     94 H94       -73.1397   26.8156  -72.5385 H         1 UNK         0.0784 
     95 H95       -74.3002   27.1913  -73.8061 H         1 UNK         0.0784 
     96 H96       -74.0932   25.5165  -75.6974 H         1 UNK         0.3213 
     97 H97       -72.6160   24.4728  -78.7842 H         1 UNK         0.0855 
     98 H98       -72.5999   22.4441  -77.3493 H         1 UNK         0.0814 
     99 H99       -74.0483   22.4921  -78.3414 H         1 UNK         0.0814 
    100 H100      -74.1366   22.9080  -76.6306 H         1 UNK         0.0814 
    101 H101      -75.2041   25.0708  -77.3986 H         1 UNK         0.3105 
    102 H102      -76.0736   27.5282  -79.7128 H         1 UNK         0.0547 
    103 H103      -76.5430   25.6393  -81.2685 H         1 UNK         0.0837 
    104 H104      -77.1693   24.6736  -79.9398 H         1 UNK         0.0837 
    105 H105      -78.0074   26.1421  -80.4407 H         1 UNK         0.0837 
    106 H106      -77.6270   25.9362  -77.8704 H         1 UNK         0.3020 
    107 H107      -76.7699   27.7181  -74.9380 H         1 UNK         0.1245 
    108 H108      -79.3784   28.0401  -75.0422 H         1 UNK         0.0781 
    109 H109      -79.1920   28.1935  -76.7545 H         1 UNK         0.0781 
    110 H110      -79.9043   30.1548  -73.8505 H         1 UNK         0.0836 
    111 H111      -78.8288   31.5243  -73.7711 H         1 UNK         0.0836 
    112 H112      -78.7805   25.8642  -75.1464 H         1 UNK         0.3022 
    113 H113      -77.0604   22.8391  -75.7032 H         1 UNK         0.0747 
    114 H114      -76.4787   23.1746  -73.3026 H         1 UNK         0.0793 
    115 H115      -78.0885   23.8116  -73.0015 H         1 UNK         0.0793 
    116 H116      -77.8839   22.1308  -73.4797 H         1 UNK         0.0793 
    117 H117      -79.7291   23.3608  -74.8124 H         1 UNK         0.3047 
    118 H118      -81.1031   23.7834  -78.1244 H         1 UNK         0.0822 
    119 H119      -82.5640   22.0286  -77.1406 H         1 UNK         0.0807 
    120 H120      -81.3636   21.6926  -75.8942 H         1 UNK         0.0807 
    121 H121      -80.9992   21.3649  -77.5803 H         1 UNK         0.0807 
    122 H122      -82.0979   24.0417  -75.3968 H         1 UNK         0.2946 
    123 H123      -81.7675   27.5328  -75.2113 H         1 UNK         0.1144 
    124 H124      -84.2390   27.6399  -75.0379 H         1 UNK         0.0793 
    125 H125      -84.3916   26.0672  -75.8235 H         1 UNK         0.0793 
    126 H126      -83.7629   27.4455  -76.7157 H         1 UNK         0.0793 
    127 H127      -83.2928   25.7720  -73.6013 H         1 UNK         0.2896 
@<TRIPOS>BOND
     1    1    2 1    
     2    1   67 1    
     3    1   68 1    
     4    1   69 1    
     5    2    3 2    
     6    2    4 am   BACKBONE|DICT|INTERRES
     7    4    5 1    
     8    4   70 1    
     9    5    6 1    
    10    5   65 1    
    11    5   71 1    
    12    6    7 1    
    13    6   72 1    
    14    6   73 1    
    15    7    8 1    
    16    8    9 1    
    17    8   74 1    
    18    8   75 1    
    19    9   10 ar   
    20    9   14 ar   
    21   10   11 ar   
    22   10   76 1    
    23   11   12 ar   
    24   11   48 1    
    25   12   13 ar   
    26   12   77 1    
    27   13   14 ar   
    28   13   15 1    
    29   14   78 1    
    30   15   16 1    
    31   15   79 1    
    32   15   80 1    
    33   16   17 1    
    34   17   18 1    
    35   17   81 1    
    36   17   82 1    
    37   18   19 1    
    38   18   22 1    
    39   18   83 1    
    40   19   20 am   BACKBONE|DICT|INTERRES
    41   19   21 2    
    42   20   84 1    
    43   20   85 1    
    44   22   23 am   BACKBONE|DICT|INTERRES
    45   22   86 1    
    46   23   24 2    
    47   23   25 1    
    48   25   26 1    
    49   25   27 1    
    50   25   87 1    
    51   26   88 1    
    52   26   89 1    
    53   26   90 1    
    54   27   28 am   BACKBONE|DICT|INTERRES
    55   27   91 1    
    56   28   29 2    
    57   28   30 1    
    58   30   31 1    
    59   30   32 1    
    60   30   92 1    
    61   31   93 1    
    62   31   94 1    
    63   31   95 1    
    64   32   33 am   BACKBONE|DICT|INTERRES
    65   32   96 1    
    66   33   34 2    
    67   33   35 1    
    68   35   36 1    
    69   35   37 1    
    70   35   97 1    
    71   36   98 1    
    72   36   99 1    
    73   36  100 1    
    74   37   38 am   BACKBONE|DICT|INTERRES
    75   37  101 1    
    76   38   39 2    
    77   38   40 1    
    78   40   41 1    
    79   40   42 1    
    80   40  102 1    
    81   41  103 1    
    82   41  104 1    
    83   41  105 1    
    84   42   43 am   BACKBONE|DICT|INTERRES
    85   42  106 1    
    86   43   44 2    
    87   43   45 1    
    88   45   46 1    
    89   45   49 1    
    90   45  107 1    
    91   46   47 1    
    92   46  108 1    
    93   46  109 1    
    94   47   48 1    
    95   48  110 1    
    96   48  111 1    
    97   49   50 am   BACKBONE|DICT|INTERRES
    98   49  112 1    
    99   50   51 2    
   100   50   52 1    
   101   52   53 1    
   102   52   54 1    
   103   52  113 1    
   104   53  114 1    
   105   53  115 1    
   106   53  116 1    
   107   54   55 am   BACKBONE|DICT|INTERRES
   108   54  117 1    
   109   55   56 2    
   110   55   57 1    
   111   57   58 1    
   112   57   59 1    
   113   57  118 1    
   114   58  119 1    
   115   58  120 1    
   116   58  121 1    
   117   59   60 am   BACKBONE|DICT|INTERRES
   118   59  122 1    
   119   60   61 2    
   120   60   62 1    
   121   62   63 1    
   122   62   64 1    
   123   62  123 1    
   124   63  124 1    
   125   63  125 1    
   126   63  126 1    
   127   64   65 am   BACKBONE|DICT|INTERRES
   128   64  127 1    
   129   65   66 2    
@<TRIPOS>SUBSTRUCTURE
     1 UNK         1 GROUP             0       ****    0 ROOT    
