@<TRIPOS>MOLECULE
3R135
127   129    1
SMALL
USER_CHARGES


@<TRIPOS>ATOM
      1 CA        -79.8062   29.2401  -70.8180 C.3       0 UNK        -0.1998 
      2 C         -80.7636   28.8548  -71.9350 C.2       0 UNK         0.4909 
      3 O         -81.9381   28.5918  -71.6756 O.2       0 UNK        -0.5240 
      4 N         -80.2681   28.8234  -73.1784 N.am      1 UNK        -0.4739 
      5 CA        -81.0334   28.5008  -74.3921 C.3       1 UNK         0.0864 
      6 C6        -80.2889   28.8945  -75.6959 C.3       11 UNK        -0.0881 
      7 S7        -79.5179   30.5489  -75.6516 S.3       11 UNK        -0.2682 
      8 C8        -77.7493   30.1142  -75.6879 C.3       11 UNK         0.0289 
      9 C9        -77.2426   29.6176  -74.3395 C.ar      11 UNK        -0.0687 
     10 C10       -77.2887   28.2589  -74.0119 C.ar      11 UNK        -0.0823 
     11 C11       -76.7925   27.8011  -72.7862 C.ar      11 UNK        -0.0830 
     12 C12       -76.2168   28.7148  -71.8976 C.ar      11 UNK        -0.1021 
     13 C13       -76.1577   30.0757  -72.2156 C.ar      11 UNK        -0.0753 
     14 C14       -76.6912   30.5208  -73.4290 C.ar      11 UNK        -0.0933 
     15 C15       -75.5269   31.0730  -71.2537 C.3       11 UNK         0.0166 
     16 S16       -74.1211   31.9297  -72.0333 S.3       11 UNK        -0.2615 
     17 C17       -72.7395   31.5898  -70.8833 C.3       11 UNK        -0.0865 
     18 CA        -72.0462   30.2001  -71.0312 C.3       10 UNK         0.0862 
     19 C         -72.5758   29.1498  -70.0135 C.2       10 UNK         0.5551 
     20 N         -72.3201   29.3569  -68.7284 N.am      10 UNK        -0.7319 
     21 O         -73.2218   28.1645  -70.3620 O.2       10 UNK        -0.5018 
     22 N         -72.0615   29.7157  -72.4173 N.am      10 UNK        -0.4509 
     23 C         -71.2192   28.8214  -72.9443 C.2       10 UNK         0.4899 
     24 O         -70.2275   28.3904  -72.3541 O.2       10 UNK        -0.4839 
     25 CA        -71.5272   28.3034  -74.3635 C.3       9 UNK         0.0222 
     26 CB        -71.8268   26.7957  -74.3257 C.3       9 UNK        -0.1966 
     27 N         -72.6459   28.9865  -75.0220 N.am      9 UNK        -0.4218 
     28 C         -72.6017   30.1970  -75.5904 C.2       9 UNK         0.5020 
     29 O         -71.5898   30.8996  -75.6246 O.2       9 UNK        -0.5274 
     30 CA        -73.9101   30.6821  -76.2487 C.3       8 UNK         0.0270 
     31 CB        -73.8591   32.1672  -76.6516 C.3       8 UNK        -0.1976 
     32 N         -74.2705   29.8764  -77.4218 N.am      8 UNK        -0.4313 
     33 C         -74.7629   28.6332  -77.3683 C.2       8 UNK         0.5041 
     34 O         -74.9879   28.0404  -76.3097 O.2       8 UNK        -0.5577 
     35 CA        -75.0305   27.9174  -78.6981 C.3       7 UNK         0.0284 
     36 CB        -73.7040   27.5416  -79.3893 C.3       7 UNK        -0.1958 
     37 N         -75.7976   26.7179  -78.3785 N.am      7 UNK        -0.4454 
     38 C         -76.3912   25.8628  -79.2166 C.2       7 UNK         0.5089 
     39 O         -76.4126   26.0170  -80.4388 O.2       7 UNK        -0.5125 
     40 CA        -77.0985   24.6392  -78.5867 C.3       6 UNK         0.0408 
     41 CB        -76.9667   23.3768  -79.4638 C.3       6 UNK        -0.1791 
     42 N         -76.7089   24.3574  -77.1947 N.am      6 UNK        -0.4762 
     43 C         -75.4873   24.0264  -76.7349 C.2       6 UNK         0.5007 
     44 O         -74.5024   23.8386  -77.4488 O.2       6 UNK        -0.5032 
     45 CA        -75.3487   23.9236  -75.2064 C.3       5 UNK         0.0783 
     46 C46       -75.4347   25.3390  -74.5881 C.3       11 UNK        -0.0857 
     47 S47       -75.3897   25.3850  -72.7683 S.3       11 UNK        -0.2512 
     48 C48       -76.9059   26.3281  -72.4055 C.3       11 UNK         0.0225 
     49 N         -76.3620   22.9983  -74.6985 N.am      5 UNK        -0.4615 
     50 C         -76.1510   21.6860  -74.5216 C.2       4 UNK         0.5053 
     51 O         -75.0507   21.1449  -74.6351 O.2       4 UNK        -0.5105 
     52 CA        -77.3773   20.8170  -74.1850 C.3       4 UNK         0.0263 
     53 CB        -77.5752   20.7333  -72.6628 C.3       4 UNK        -0.1981 
     54 N         -78.6067   21.3118  -74.8062 N.am      4 UNK        -0.4224 
     55 C         -78.8255   21.3953  -76.1274 C.2       3 UNK         0.4895 
     56 O         -78.0829   20.8990  -76.9739 O.2       3 UNK        -0.5091 
     57 CA        -80.0635   22.1900  -76.5880 C.3       3 UNK         0.0250 
     58 CB        -81.1285   21.2443  -77.1668 C.3       3 UNK        -0.1996 
     59 N         -80.6726   23.0132  -75.5351 N.am      3 UNK        -0.4254 
     60 C         -80.1021   24.0769  -74.9529 C.2       2 UNK         0.5004 
     61 O         -78.9777   24.5035  -75.2413 O.2       2 UNK        -0.5226 
     62 CA        -80.8826   24.6957  -73.7846 C.3       2 UNK         0.0269 
     63 CB        -80.4017   24.1008  -72.4501 C.3       2 UNK        -0.1926 
     64 N         -80.7092   26.1450  -73.7535 N.am      2 UNK        -0.4687 
     65 C         -81.4360   27.0124  -74.4714 C.2       1 UNK         0.5165 
     66 O         -82.3778   26.6783  -75.1921 O.2       1 UNK        -0.5079 
     67 H67       -79.4949   28.3537  -70.2661 H         1 UNK         0.0900 
     68 H68       -80.2920   29.9239  -70.1225 H         1 UNK         0.0900 
     69 H69       -78.9156   29.7342  -71.2046 H         1 UNK         0.0900 
     70 H70       -79.3025   29.0831  -73.3352 H         1 UNK         0.2959 
     71 H71       -81.9603   29.0772  -74.3493 H         1 UNK         0.1079 
     72 H72       -79.5320   28.1530  -75.9554 H         1 UNK         0.0837 
     73 H73       -80.9912   28.8861  -76.5318 H         1 UNK         0.0837 
     74 H74       -77.5676   29.3665  -76.4610 H         1 UNK         0.0685 
     75 H75       -77.1829   30.9962  -75.9905 H         1 UNK         0.0685 
     76 H76       -77.7165   27.5579  -74.7133 H         1 UNK         0.1434 
     77 H77       -75.8176   28.3630  -70.9562 H         1 UNK         0.1329 
     78 H78       -76.6498   31.5728  -73.6764 H         1 UNK         0.1335 
     79 H79       -75.2088   30.5781  -70.3354 H         1 UNK         0.0680 
     80 H80       -76.2749   31.8114  -70.9622 H         1 UNK         0.0680 
     81 H81       -73.0666   31.7822  -69.8597 H         1 UNK         0.1032 
     82 H82       -71.9932   32.3608  -71.0805 H         1 UNK         0.1032 
     83 H83       -70.9964   30.3457  -70.7676 H         1 UNK         0.0461 
     84 H84       -71.7826   30.1525  -68.4212 H         1 UNK         0.3453 
     85 H85       -72.6573   28.6905  -68.0514 H         1 UNK         0.3453 
     86 H86       -72.8662   29.9958  -72.9585 H         1 UNK         0.2984 
     87 H87       -70.6312   28.4569  -74.9682 H         1 UNK         0.0554 
     88 H88       -72.0562   26.4060  -75.3178 H         1 UNK         0.0847 
     89 H89       -72.6691   26.5744  -73.6694 H         1 UNK         0.0847 
     90 H90       -70.9695   26.2364  -73.9489 H         1 UNK         0.0847 
     91 H91       -73.5195   28.4716  -75.1132 H         1 UNK         0.3141 
     92 H92       -74.6967   30.5760  -75.4999 H         1 UNK         0.0743 
     93 H93       -74.8208   32.5065  -77.0367 H         1 UNK         0.0784 
     94 H94       -73.6174   32.7944  -75.7922 H         1 UNK         0.0784 
     95 H95       -73.1042   32.3548  -77.4162 H         1 UNK         0.0784 
     96 H96       -74.0776   30.2859  -78.3248 H         1 UNK         0.3213 
     97 H97       -75.6277   28.5664  -79.3414 H         1 UNK         0.0855 
     98 H98       -73.1013   26.8808  -78.7645 H         1 UNK         0.0814 
     99 H99       -73.1033   28.4258  -79.6050 H         1 UNK         0.0814 
    100 H100      -73.8750   27.0355  -80.3393 H         1 UNK         0.0814 
    101 H101      -75.8487   26.5511  -77.3800 H         1 UNK         0.3105 
    102 H102      -78.1573   24.8986  -78.5470 H         1 UNK         0.0547 
    103 H103      -77.3899   23.5412  -80.4553 H         1 UNK         0.0837 
    104 H104      -75.9253   23.0855  -79.6014 H         1 UNK         0.0837 
    105 H105      -77.4963   22.5314  -79.0269 H         1 UNK         0.0837 
    106 H106      -77.4531   24.4820  -76.5127 H         1 UNK         0.3020 
    107 H107      -74.3521   23.5316  -74.9891 H         1 UNK         0.1245 
    108 H108      -76.3364   25.8419  -74.9320 H         1 UNK         0.0781 
    109 H109      -74.6007   25.9435  -74.9428 H         1 UNK         0.0781 
    110 H110      -77.1245   26.2430  -71.3400 H         1 UNK         0.0836 
    111 H111      -77.7455   25.8662  -72.9247 H         1 UNK         0.0836 
    112 H112      -77.3013   23.3659  -74.6133 H         1 UNK         0.3022 
    113 H113      -77.1886   19.8113  -74.5667 H         1 UNK         0.0747 
    114 H114      -78.3995   20.0682  -72.4046 H         1 UNK         0.0793 
    115 H115      -76.6808   20.3422  -72.1756 H         1 UNK         0.0793 
    116 H116      -77.7815   21.7117  -72.2264 H         1 UNK         0.0793 
    117 H117      -79.2948   21.7152  -74.1892 H         1 UNK         0.3047 
    118 H118      -79.7315   22.8606  -77.3837 H         1 UNK         0.0822 
    119 H119      -81.9736   21.7993  -77.5748 H         1 UNK         0.0807 
    120 H120      -81.5100   20.5548  -76.4126 H         1 UNK         0.0807 
    121 H121      -80.7176   20.6431  -77.9793 H         1 UNK         0.0807 
    122 H122      -81.5894   22.7243  -75.2233 H         1 UNK         0.2946 
    123 H123      -81.9454   24.4691  -73.9011 H         1 UNK         0.1144 
    124 H124      -80.9175   24.5574  -71.6050 H         1 UNK         0.0793 
    125 H125      -79.3305   24.2367  -72.3006 H         1 UNK         0.0793 
    126 H126      -80.6012   23.0295  -72.4049 H         1 UNK         0.0793 
    127 H127      -79.9422   26.5060  -73.2077 H         1 UNK         0.2896 
@<TRIPOS>BOND
     1    1    2 1    
     2    1   67 1    
     3    1   68 1    
     4    1   69 1    
     5    2    3 2    
     6    2    4 am   BACKBONE|DICT|INTERRES
     7    4    5 1    
     8    4   70 1    
     9    5    6 1    
    10    5   65 1    
    11    5   71 1    
    12    6    7 1    
    13    6   72 1    
    14    6   73 1    
    15    7    8 1    
    16    8    9 1    
    17    8   74 1    
    18    8   75 1    
    19    9   10 ar   
    20    9   14 ar   
    21   10   11 ar   
    22   10   76 1    
    23   11   12 ar   
    24   11   48 1    
    25   12   13 ar   
    26   12   77 1    
    27   13   14 ar   
    28   13   15 1    
    29   14   78 1    
    30   15   16 1    
    31   15   79 1    
    32   15   80 1    
    33   16   17 1    
    34   17   18 1    
    35   17   81 1    
    36   17   82 1    
    37   18   19 1    
    38   18   22 1    
    39   18   83 1    
    40   19   20 am   BACKBONE|DICT|INTERRES
    41   19   21 2    
    42   20   84 1    
    43   20   85 1    
    44   22   23 am   BACKBONE|DICT|INTERRES
    45   22   86 1    
    46   23   24 2    
    47   23   25 1    
    48   25   26 1    
    49   25   27 1    
    50   25   87 1    
    51   26   88 1    
    52   26   89 1    
    53   26   90 1    
    54   27   28 am   BACKBONE|DICT|INTERRES
    55   27   91 1    
    56   28   29 2    
    57   28   30 1    
    58   30   31 1    
    59   30   32 1    
    60   30   92 1    
    61   31   93 1    
    62   31   94 1    
    63   31   95 1    
    64   32   33 am   BACKBONE|DICT|INTERRES
    65   32   96 1    
    66   33   34 2    
    67   33   35 1    
    68   35   36 1    
    69   35   37 1    
    70   35   97 1    
    71   36   98 1    
    72   36   99 1    
    73   36  100 1    
    74   37   38 am   BACKBONE|DICT|INTERRES
    75   37  101 1    
    76   38   39 2    
    77   38   40 1    
    78   40   41 1    
    79   40   42 1    
    80   40  102 1    
    81   41  103 1    
    82   41  104 1    
    83   41  105 1    
    84   42   43 am   BACKBONE|DICT|INTERRES
    85   42  106 1    
    86   43   44 2    
    87   43   45 1    
    88   45   46 1    
    89   45   49 1    
    90   45  107 1    
    91   46   47 1    
    92   46  108 1    
    93   46  109 1    
    94   47   48 1    
    95   48  110 1    
    96   48  111 1    
    97   49   50 am   BACKBONE|DICT|INTERRES
    98   49  112 1    
    99   50   51 2    
   100   50   52 1    
   101   52   53 1    
   102   52   54 1    
   103   52  113 1    
   104   53  114 1    
   105   53  115 1    
   106   53  116 1    
   107   54   55 am   BACKBONE|DICT|INTERRES
   108   54  117 1    
   109   55   56 2    
   110   55   57 1    
   111   57   58 1    
   112   57   59 1    
   113   57  118 1    
   114   58  119 1    
   115   58  120 1    
   116   58  121 1    
   117   59   60 am   BACKBONE|DICT|INTERRES
   118   59  122 1    
   119   60   61 2    
   120   60   62 1    
   121   62   63 1    
   122   62   64 1    
   123   62  123 1    
   124   63  124 1    
   125   63  125 1    
   126   63  126 1    
   127   64   65 am   BACKBONE|DICT|INTERRES
   128   64  127 1    
   129   65   66 2    
@<TRIPOS>SUBSTRUCTURE
     1 UNK         1 GROUP             0       ****    0 ROOT    
