@<TRIPOS>MOLECULE
3R135
127   129    1
SMALL
USER_CHARGES


@<TRIPOS>ATOM
      1 CA        -83.6666   26.3159  -74.6178 C.3       0 UNK        -0.1998 
      2 C         -82.4611   27.2427  -74.5968 C.2       0 UNK         0.4909 
      3 O         -82.2410   27.9802  -75.5581 O.2       0 UNK        -0.5240 
      4 N         -81.6728   27.2031  -73.5133 N.am      1 UNK        -0.4739 
      5 CA        -80.4535   27.9950  -73.3052 C.3       1 UNK         0.0864 
      6 C6        -79.8688   27.7486  -71.8877 C.3       11 UNK        -0.0881 
      7 S7        -79.0585   29.2285  -71.2050 S.3       11 UNK        -0.2682 
      8 C8        -78.2152   28.5361  -69.7467 C.3       11 UNK         0.0289 
      9 C9        -76.8019   28.0855  -70.0832 C.ar      11 UNK        -0.0687 
     10 C10       -76.5337   26.7525  -70.4111 C.ar      11 UNK        -0.0823 
     11 C11       -75.2335   26.3513  -70.7379 C.ar      11 UNK        -0.0830 
     12 C12       -74.2023   27.2954  -70.7403 C.ar      11 UNK        -0.1021 
     13 C13       -74.4602   28.6303  -70.4186 C.ar      11 UNK        -0.0753 
     14 C14       -75.7576   29.0147  -70.0693 C.ar      11 UNK        -0.0933 
     15 C15       -73.3388   29.6563  -70.4693 C.3       11 UNK         0.0166 
     16 S16       -73.0846   30.2817  -72.1616 S.3       11 UNK        -0.2615 
     17 C17       -74.5229   31.3846  -72.3833 C.3       11 UNK        -0.0865 
     18 CA        -75.7145   30.7233  -73.1387 C.3       10 UNK         0.0862 
     19 C         -76.9835   31.6310  -73.1455 C.2       10 UNK         0.5551 
     20 N         -77.8631   31.5196  -74.1317 N.am      10 UNK        -0.7319 
     21 O         -77.1884   32.4341  -72.2382 O.2       10 UNK        -0.5018 
     22 N         -75.3317   30.1615  -74.4476 N.am      10 UNK        -0.4509 
     23 C         -74.9405   30.8506  -75.5254 C.2       10 UNK         0.4899 
     24 O         -74.8658   32.0792  -75.5708 O.2       10 UNK        -0.4839 
     25 CA        -74.5479   30.0087  -76.7537 C.3       9 UNK         0.0222 
     26 CB        -74.4305   30.8531  -78.0363 C.3       9 UNK        -0.1966 
     27 N         -73.2848   29.3065  -76.5236 N.am      9 UNK        -0.4218 
     28 C         -73.1524   28.1710  -75.8272 C.2       9 UNK         0.5020 
     29 O         -74.0957   27.5621  -75.3166 O.2       9 UNK        -0.5274 
     30 CA        -71.7234   27.6484  -75.6538 C.3       8 UNK         0.0270 
     31 CB        -70.9958   28.4103  -74.5284 C.3       8 UNK        -0.1976 
     32 N         -71.7664   26.2210  -75.3482 N.am      8 UNK        -0.4313 
     33 C         -70.7245   25.3855  -75.4279 C.2       8 UNK         0.5041 
     34 O         -69.6028   25.7238  -75.8099 O.2       8 UNK        -0.5577 
     35 CA        -70.9562   23.9276  -75.0028 C.3       7 UNK         0.0284 
     36 CB        -70.7866   23.7771  -73.4817 C.3       7 UNK        -0.1958 
     37 N         -72.2609   23.4006  -75.4095 N.am      7 UNK        -0.4454 
     38 C         -72.5692   23.0326  -76.6622 C.2       7 UNK         0.5089 
     39 O         -71.8079   23.1709  -77.6202 O.2       7 UNK        -0.5125 
     40 CA        -73.9353   22.3597  -76.8893 C.3       6 UNK         0.0408 
     41 CB        -73.7591   20.8389  -77.0319 C.3       6 UNK        -0.1791 
     42 N         -74.8813   22.6272  -75.8031 N.am      6 UNK        -0.4762 
     43 C         -75.7384   23.6557  -75.7902 C.2       6 UNK         0.5007 
     44 O         -75.8716   24.4492  -76.7235 O.2       6 UNK        -0.5032 
     45 CA        -76.5621   23.8471  -74.5026 C.3       5 UNK         0.0783 
     46 C46       -76.0556   25.0556  -73.6810 C.3       11 UNK        -0.0857 
     47 S47       -74.4755   24.7052  -72.8401 S.3       11 UNK        -0.2512 
     48 C48       -74.9339   24.9001  -71.0885 C.3       11 UNK         0.0225 
     49 N         -77.9787   23.9955  -74.8198 N.am      5 UNK        -0.4615 
     50 C         -78.7926   23.0020  -75.1932 C.2       4 UNK         0.5053 
     51 O         -78.4328   21.8308  -75.3147 O.2       4 UNK        -0.5105 
     52 CA        -80.2585   23.3731  -75.4521 C.3       4 UNK         0.0263 
     53 CB        -81.0020   23.5780  -74.1212 C.3       4 UNK        -0.1981 
     54 N         -80.3676   24.5876  -76.2624 N.am      4 UNK        -0.4224 
     55 C         -80.6284   24.6043  -77.5776 C.2       3 UNK         0.4895 
     56 O         -80.8068   23.5885  -78.2510 O.2       3 UNK        -0.5091 
     57 CA        -80.7344   25.9753  -78.2714 C.3       3 UNK         0.0250 
     58 CB        -82.2023   26.3108  -78.5841 C.3       3 UNK        -0.1996 
     59 N         -80.1486   27.0618  -77.4822 N.am      3 UNK        -0.4254 
     60 C         -78.8434   27.3708  -77.4914 C.2       2 UNK         0.5004 
     61 O         -78.0214   26.8260  -78.2270 O.2       2 UNK        -0.5226 
     62 CA        -78.3638   28.4732  -76.5267 C.3       2 UNK         0.0269 
     63 CB        -78.2571   29.8085  -77.2847 C.3       2 UNK        -0.1926 
     64 N         -79.2064   28.6471  -75.3345 N.am      2 UNK        -0.4687 
     65 C         -79.4226   27.6964  -74.4131 C.2       1 UNK         0.5165 
     66 O         -78.9121   26.5770  -74.4643 O.2       1 UNK        -0.5079 
     67 H67       -84.5746   26.8871  -74.8088 H         1 UNK         0.0900 
     68 H68       -83.5570   25.5752  -75.4092 H         1 UNK         0.0900 
     69 H69       -83.7918   25.7879  -73.6727 H         1 UNK         0.0900 
     70 H70       -81.9062   26.5653  -72.7662 H         1 UNK         0.2959 
     71 H71       -80.7536   29.0425  -73.3838 H         1 UNK         0.1079 
     72 H72       -79.1807   26.9012  -71.8684 H         1 UNK         0.0837 
     73 H73       -80.6669   27.4927  -71.1888 H         1 UNK         0.0837 
     74 H74       -78.1776   29.3015  -68.9701 H         1 UNK         0.0685 
     75 H75       -78.7969   27.7122  -69.3303 H         1 UNK         0.0685 
     76 H76       -77.3378   26.0297  -70.4157 H         1 UNK         0.1434 
     77 H77       -73.2002   26.9931  -71.0130 H         1 UNK         0.1329 
     78 H78       -75.9643   30.0470  -69.8223 H         1 UNK         0.1335 
     79 H79       -72.4109   29.1987  -70.1231 H         1 UNK         0.0680 
     80 H80       -73.5391   30.4865  -69.7903 H         1 UNK         0.0680 
     81 H81       -74.1879   32.2734  -72.9202 H         1 UNK         0.1032 
     82 H82       -74.8377   31.7393  -71.4006 H         1 UNK         0.1032 
     83 H83       -76.0243   29.8531  -72.5643 H         1 UNK         0.0461 
     84 H84       -77.7017   30.8635  -74.8754 H         1 UNK         0.3453 
     85 H85       -78.6780   32.1118  -74.1320 H         1 UNK         0.3453 
     86 H86       -75.2805   29.1499  -74.4952 H         1 UNK         0.2984 
     87 H87       -75.3350   29.2712  -76.9198 H         1 UNK         0.0554 
     88 H88       -75.3618   31.3835  -78.2399 H         1 UNK         0.0847 
     89 H89       -74.2200   30.2284  -78.9045 H         1 UNK         0.0847 
     90 H90       -73.6400   31.6010  -77.9612 H         1 UNK         0.0847 
     91 H91       -72.4514   29.7600  -76.8706 H         1 UNK         0.3141 
     92 H92       -71.1916   27.7908  -76.5970 H         1 UNK         0.0743 
     93 H93       -71.4437   28.2027  -73.5560 H         1 UNK         0.0784 
     94 H94       -69.9427   28.1348  -74.4739 H         1 UNK         0.0784 
     95 H95       -71.0368   29.4891  -74.6839 H         1 UNK         0.0784 
     96 H96       -72.6772   25.8833  -75.0580 H         1 UNK         0.3213 
     97 H97       -70.1847   23.3212  -75.4833 H         1 UNK         0.0855 
     98 H98       -71.5093   24.3777  -72.9290 H         1 UNK         0.0814 
     99 H99       -69.7930   24.1015  -73.1695 H         1 UNK         0.0814 
    100 H100      -70.9000   22.7392  -73.1682 H         1 UNK         0.0814 
    101 H101      -72.9534   23.2783  -74.6852 H         1 UNK         0.3105 
    102 H102      -74.3366   22.7386  -77.8318 H         1 UNK         0.0547 
    103 H103      -73.0829   20.5998  -77.8540 H         1 UNK         0.0837 
    104 H104      -73.3431   20.3911  -76.1285 H         1 UNK         0.0837 
    105 H105      -74.7090   20.3478  -77.2441 H         1 UNK         0.0837 
    106 H106      -74.8489   22.0014  -75.0101 H         1 UNK         0.3020 
    107 H107      -76.4681   22.9512  -73.8843 H         1 UNK         0.1245 
    108 H108      -76.7997   25.3255  -72.9307 H         1 UNK         0.0781 
    109 H109      -75.9431   25.9434  -74.3061 H         1 UNK         0.0781 
    110 H110      -74.1090   24.5472  -70.4681 H         1 UNK         0.0836 
    111 H111      -75.7842   24.2551  -70.8612 H         1 UNK         0.0836 
    112 H112      -78.3451   24.9431  -74.7474 H         1 UNK         0.3022 
    113 H113      -80.7276   22.5320  -75.9673 H         1 UNK         0.0747 
    114 H114      -82.0630   23.7623  -74.2866 H         1 UNK         0.0793 
    115 H115      -80.9247   22.6905  -73.4915 H         1 UNK         0.0793 
    116 H116      -80.5979   24.4163  -73.5527 H         1 UNK         0.0793 
    117 H117      -80.1544   25.4619  -75.7996 H         1 UNK         0.3047 
    118 H118      -80.2026   25.8982  -79.2224 H         1 UNK         0.0822 
    119 H119      -82.2881   27.2614  -79.1108 H         1 UNK         0.0807 
    120 H120      -82.8075   26.3735  -77.6800 H         1 UNK         0.0807 
    121 H121      -82.6497   25.5469  -79.2215 H         1 UNK         0.0807 
    122 H122      -80.7739   27.5621  -76.8560 H         1 UNK         0.2946 
    123 H123      -77.3684   28.1777  -76.1868 H         1 UNK         0.1144 
    124 H124      -77.6574   29.6963  -78.1895 H         1 UNK         0.0793 
    125 H125      -77.7809   30.5837  -76.6889 H         1 UNK         0.0793 
    126 H126      -79.2372   30.1755  -77.5921 H         1 UNK         0.0793 
    127 H127      -79.7300   29.5086  -75.2690 H         1 UNK         0.2896 
@<TRIPOS>BOND
     1    1    2 1    
     2    1   67 1    
     3    1   68 1    
     4    1   69 1    
     5    2    3 2    
     6    2    4 am   BACKBONE|DICT|INTERRES
     7    4    5 1    
     8    4   70 1    
     9    5    6 1    
    10    5   65 1    
    11    5   71 1    
    12    6    7 1    
    13    6   72 1    
    14    6   73 1    
    15    7    8 1    
    16    8    9 1    
    17    8   74 1    
    18    8   75 1    
    19    9   10 ar   
    20    9   14 ar   
    21   10   11 ar   
    22   10   76 1    
    23   11   12 ar   
    24   11   48 1    
    25   12   13 ar   
    26   12   77 1    
    27   13   14 ar   
    28   13   15 1    
    29   14   78 1    
    30   15   16 1    
    31   15   79 1    
    32   15   80 1    
    33   16   17 1    
    34   17   18 1    
    35   17   81 1    
    36   17   82 1    
    37   18   19 1    
    38   18   22 1    
    39   18   83 1    
    40   19   20 am   BACKBONE|DICT|INTERRES
    41   19   21 2    
    42   20   84 1    
    43   20   85 1    
    44   22   23 am   BACKBONE|DICT|INTERRES
    45   22   86 1    
    46   23   24 2    
    47   23   25 1    
    48   25   26 1    
    49   25   27 1    
    50   25   87 1    
    51   26   88 1    
    52   26   89 1    
    53   26   90 1    
    54   27   28 am   BACKBONE|DICT|INTERRES
    55   27   91 1    
    56   28   29 2    
    57   28   30 1    
    58   30   31 1    
    59   30   32 1    
    60   30   92 1    
    61   31   93 1    
    62   31   94 1    
    63   31   95 1    
    64   32   33 am   BACKBONE|DICT|INTERRES
    65   32   96 1    
    66   33   34 2    
    67   33   35 1    
    68   35   36 1    
    69   35   37 1    
    70   35   97 1    
    71   36   98 1    
    72   36   99 1    
    73   36  100 1    
    74   37   38 am   BACKBONE|DICT|INTERRES
    75   37  101 1    
    76   38   39 2    
    77   38   40 1    
    78   40   41 1    
    79   40   42 1    
    80   40  102 1    
    81   41  103 1    
    82   41  104 1    
    83   41  105 1    
    84   42   43 am   BACKBONE|DICT|INTERRES
    85   42  106 1    
    86   43   44 2    
    87   43   45 1    
    88   45   46 1    
    89   45   49 1    
    90   45  107 1    
    91   46   47 1    
    92   46  108 1    
    93   46  109 1    
    94   47   48 1    
    95   48  110 1    
    96   48  111 1    
    97   49   50 am   BACKBONE|DICT|INTERRES
    98   49  112 1    
    99   50   51 2    
   100   50   52 1    
   101   52   53 1    
   102   52   54 1    
   103   52  113 1    
   104   53  114 1    
   105   53  115 1    
   106   53  116 1    
   107   54   55 am   BACKBONE|DICT|INTERRES
   108   54  117 1    
   109   55   56 2    
   110   55   57 1    
   111   57   58 1    
   112   57   59 1    
   113   57  118 1    
   114   58  119 1    
   115   58  120 1    
   116   58  121 1    
   117   59   60 am   BACKBONE|DICT|INTERRES
   118   59  122 1    
   119   60   61 2    
   120   60   62 1    
   121   62   63 1    
   122   62   64 1    
   123   62  123 1    
   124   63  124 1    
   125   63  125 1    
   126   63  126 1    
   127   64   65 am   BACKBONE|DICT|INTERRES
   128   64  127 1    
   129   65   66 2    
@<TRIPOS>SUBSTRUCTURE
     1 UNK         1 GROUP             0       ****    0 ROOT    
