@<TRIPOS>MOLECULE
3R135
127   129    1
SMALL
USER_CHARGES


@<TRIPOS>ATOM
      1 CA        -83.2206   27.1474  -75.7240 C.3       0 UNK        -0.1998 
      2 C         -81.8104   27.7151  -75.7682 C.2       0 UNK         0.4909 
      3 O         -81.2405   27.8430  -76.8528 O.2       0 UNK        -0.5240 
      4 N         -81.2480   28.0490  -74.5971 N.am      1 UNK        -0.4739 
      5 CA        -79.8861   28.5636  -74.3998 C.3       1 UNK         0.0864 
      6 C6        -79.5426   28.6996  -72.9009 C.3       11 UNK        -0.0881 
      7 S7        -80.5129   29.9518  -72.0027 S.3       11 UNK        -0.2682 
      8 C8        -80.2585   29.4134  -70.2732 C.3       11 UNK         0.0289 
      9 C9        -78.8133   29.0109  -69.9997 C.ar      11 UNK        -0.0687 
     10 C10       -78.4680   27.6583  -69.8965 C.ar      11 UNK        -0.0823 
     11 C11       -77.1350   27.2746  -69.7254 C.ar      11 UNK        -0.0830 
     12 C12       -76.1486   28.2613  -69.6426 C.ar      11 UNK        -0.1021 
     13 C13       -76.4737   29.6169  -69.7611 C.ar      11 UNK        -0.0753 
     14 C14       -77.8153   29.9856  -69.9119 C.ar      11 UNK        -0.0933 
     15 C15       -75.3555   30.6562  -69.7221 C.3       11 UNK         0.0166 
     16 S16       -75.5368   32.0410  -70.9041 S.3       11 UNK        -0.2615 
     17 C17       -75.8049   31.2306  -72.5201 C.3       11 UNK        -0.0865 
     18 CA        -74.5774   30.4276  -73.0474 C.3       10 UNK         0.0862 
     19 C         -74.7898   28.8971  -72.8881 C.2       10 UNK         0.5551 
     20 N         -73.9454   28.2150  -72.1273 N.am      10 UNK        -0.7319 
     21 O         -75.7250   28.3387  -73.4541 O.2       10 UNK        -0.5018 
     22 N         -74.2699   30.7651  -74.4472 N.am      10 UNK        -0.4509 
     23 C         -73.1720   30.3538  -75.0923 C.2       10 UNK         0.4899 
     24 O         -72.2343   29.7595  -74.5531 O.2       10 UNK        -0.4839 
     25 CA        -73.0951   30.6526  -76.5928 C.3       9 UNK         0.0222 
     26 CB        -72.4211   32.0107  -76.8586 C.3       9 UNK        -0.1966 
     27 N         -72.3244   29.5706  -77.1918 N.am      9 UNK        -0.4218 
     28 C         -72.3069   29.1983  -78.4756 C.2       9 UNK         0.5020 
     29 O         -72.9018   29.7918  -79.3758 O.2       9 UNK        -0.5274 
     30 CA        -71.4946   27.9304  -78.8023 C.3       8 UNK         0.0270 
     31 CB        -70.0256   28.2860  -79.0853 C.3       8 UNK        -0.1976 
     32 N         -71.5621   26.9336  -77.7254 N.am      8 UNK        -0.4313 
     33 C         -72.6531   26.2046  -77.4550 C.2       8 UNK         0.5041 
     34 O         -73.6663   26.2115  -78.1557 O.2       8 UNK        -0.5577 
     35 CA        -72.6125   25.3537  -76.1794 C.3       7 UNK         0.0284 
     36 CB        -72.7169   26.2420  -74.9263 C.3       7 UNK        -0.1958 
     37 N         -73.7370   24.4209  -76.1766 N.am      7 UNK        -0.4454 
     38 C         -73.6759   23.1285  -75.8434 C.2       7 UNK         0.5089 
     39 O         -72.6405   22.5475  -75.5110 O.2       7 UNK        -0.5125 
     40 CA        -75.0221   22.3838  -75.8569 C.3       6 UNK         0.0408 
     41 CB        -74.8907   20.8656  -75.6109 C.3       6 UNK        -0.1791 
     42 N         -75.9719   23.0017  -74.9239 N.am      6 UNK        -0.4762 
     43 C         -75.8823   23.0807  -73.5844 C.2       6 UNK         0.5007 
     44 O         -74.9864   22.5529  -72.9249 O.2       6 UNK        -0.5032 
     45 CA        -76.9930   23.8683  -72.8499 C.3       5 UNK         0.0783 
     46 C46       -76.5158   25.2769  -72.4067 C.3       11 UNK        -0.0857 
     47 S47       -75.5432   25.2609  -70.8630 S.3       11 UNK        -0.2512 
     48 C48       -76.7648   25.7979  -69.6148 C.3       11 UNK         0.0225 
     49 N         -78.2127   23.9761  -73.6522 N.am      5 UNK        -0.4615 
     50 C         -79.0906   22.9931  -73.8818 C.2       4 UNK         0.5053 
     51 O         -78.9914   21.8592  -73.4135 O.2       4 UNK        -0.5105 
     52 CA        -80.2738   23.3399  -74.7967 C.3       4 UNK         0.0263 
     53 CB        -81.3497   24.1159  -74.0179 C.3       4 UNK        -0.1981 
     54 N         -79.8434   24.1336  -75.9506 N.am      4 UNK        -0.4224 
     55 C         -79.4650   23.6214  -77.1294 C.2       3 UNK         0.4895 
     56 O         -79.4455   22.4149  -77.3744 O.2       3 UNK        -0.5091 
     57 CA        -79.0565   24.6104  -78.2374 C.3       3 UNK         0.0250 
     58 CB        -80.2540   24.9018  -79.1563 C.3       3 UNK        -0.1996 
     59 N         -78.5250   25.8787  -77.7344 N.am      3 UNK        -0.4254 
     60 C         -77.3076   26.0322  -77.1944 C.2       2 UNK         0.5004 
     61 O         -76.4978   25.1157  -77.0540 O.2       2 UNK        -0.5226 
     62 CA        -76.9589   27.4370  -76.6665 C.3       2 UNK         0.0269 
     63 CB        -76.4278   28.3273  -77.8014 C.3       2 UNK        -0.1926 
     64 N         -78.0660   28.1379  -76.0035 N.am      2 UNK        -0.4687 
     65 C         -78.8388   27.6325  -75.0334 C.2       1 UNK         0.5165 
     66 O         -78.7652   26.4730  -74.6269 O.2       1 UNK        -0.5079 
     67 H67       -83.5766   27.0175  -74.7021 H         1 UNK         0.0900 
     68 H68       -83.9090   27.8137  -76.2428 H         1 UNK         0.0900 
     69 H69       -83.2485   26.1766  -76.2182 H         1 UNK         0.0900 
     70 H70       -81.7796   27.9283  -73.7472 H         1 UNK         0.2959 
     71 H71       -79.8244   29.5460  -74.8719 H         1 UNK         0.1079 
     72 H72       -78.4888   28.9588  -72.7732 H         1 UNK         0.0837 
     73 H73       -79.6787   27.7353  -72.4070 H         1 UNK         0.0837 
     74 H74       -80.9328   28.5823  -70.0610 H         1 UNK         0.0685 
     75 H75       -80.5484   30.2220  -69.6008 H         1 UNK         0.0685 
     76 H76       -79.2378   26.9024  -69.9712 H         1 UNK         0.1434 
     77 H77       -75.1166   27.9657  -69.5119 H         1 UNK         0.1329 
     78 H78       -78.0820   31.0294  -70.0041 H         1 UNK         0.1335 
     79 H79       -74.3906   30.1816  -69.9057 H         1 UNK         0.0680 
     80 H80       -75.3040   31.0683  -68.7137 H         1 UNK         0.0680 
     81 H81       -76.7122   30.6256  -72.4719 H         1 UNK         0.1032 
     82 H82       -76.0551   32.0363  -73.2117 H         1 UNK         0.1032 
     83 H83       -73.6992   30.7163  -72.4658 H         1 UNK         0.0461 
     84 H84       -73.1508   28.6622  -71.7000 H         1 UNK         0.3453 
     85 H85       -74.1023   27.2282  -71.9986 H         1 UNK         0.3453 
     86 H86       -74.9971   31.2325  -74.9677 H         1 UNK         0.2984 
     87 H87       -74.1024   30.6505  -77.0129 H         1 UNK         0.0554 
     88 H88       -72.9811   32.8230  -76.3939 H         1 UNK         0.0847 
     89 H89       -72.3656   32.2262  -77.9257 H         1 UNK         0.0847 
     90 H90       -71.4069   32.0413  -76.4582 H         1 UNK         0.0847 
     91 H91       -71.8162   29.0205  -76.5103 H         1 UNK         0.3141 
     92 H92       -71.9175   27.4897  -79.7079 H         1 UNK         0.0743 
     93 H93       -69.9510   29.0103  -79.8977 H         1 UNK         0.0784 
     94 H94       -69.5374   28.7237  -78.2135 H         1 UNK         0.0784 
     95 H95       -69.4551   27.4066  -79.3846 H         1 UNK         0.0784 
     96 H96       -70.7549   26.8533  -77.1228 H         1 UNK         0.3213 
     97 H97       -71.6659   24.8091  -76.1656 H         1 UNK         0.0855 
     98 H98       -73.6254   26.8460  -74.9374 H         1 UNK         0.0814 
     99 H99       -71.8713   26.9258  -74.8476 H         1 UNK         0.0814 
    100 H100      -72.7300   25.6428  -74.0156 H         1 UNK         0.0814 
    101 H101      -74.6158   24.7932  -76.5335 H         1 UNK         0.3105 
    102 H102      -75.4429   22.5149  -76.8550 H         1 UNK         0.0547 
    103 H103      -75.8629   20.3740  -75.6419 H         1 UNK         0.0837 
    104 H104      -74.4322   20.6421  -74.6474 H         1 UNK         0.0837 
    105 H105      -74.2680   20.4032  -76.3774 H         1 UNK         0.0837 
    106 H106      -76.7203   23.5196  -75.3663 H         1 UNK         0.3020 
    107 H107      -77.2496   23.2936  -71.9569 H         1 UNK         0.1245 
    108 H108      -77.3683   25.9412  -72.2550 H         1 UNK         0.0781 
    109 H109      -75.9241   25.7483  -73.1932 H         1 UNK         0.0781 
    110 H110      -76.3481   25.6195  -68.6228 H         1 UNK         0.0836 
    111 H111      -77.6499   25.1643  -69.6914 H         1 UNK         0.0836 
    112 H112      -78.3974   24.8959  -74.0540 H         1 UNK         0.3022 
    113 H113      -80.7185   22.4035  -75.1410 H         1 UNK         0.0747 
    114 H114      -82.2224   24.3121  -74.6405 H         1 UNK         0.0793 
    115 H115      -81.6915   23.5459  -73.1529 H         1 UNK         0.0793 
    116 H116      -80.9775   25.0733  -73.6510 H         1 UNK         0.0793 
    117 H117      -79.7429   25.1309  -75.8004 H         1 UNK         0.3047 
    118 H118      -78.2783   24.1282  -78.8335 H         1 UNK         0.0822 
    119 H119      -79.9638   25.5295  -79.9992 H         1 UNK         0.0807 
    120 H120      -81.0586   25.4089  -78.6216 H         1 UNK         0.0807 
    121 H121      -80.6656   23.9791  -79.5679 H         1 UNK         0.0807 
    122 H122      -79.1429   26.6796  -77.7631 H         1 UNK         0.2946 
    123 H123      -76.1655   27.3094  -75.9268 H         1 UNK         0.1144 
    124 H124      -75.6107   27.8451  -78.3366 H         1 UNK         0.0793 
    125 H125      -76.0451   29.2721  -77.4173 H         1 UNK         0.0793 
    126 H126      -77.2033   28.5518  -78.5346 H         1 UNK         0.0793 
    127 H127      -78.2200   29.0932  -76.2910 H         1 UNK         0.2896 
@<TRIPOS>BOND
     1    1    2 1    
     2    1   67 1    
     3    1   68 1    
     4    1   69 1    
     5    2    3 2    
     6    2    4 am   BACKBONE|DICT|INTERRES
     7    4    5 1    
     8    4   70 1    
     9    5    6 1    
    10    5   65 1    
    11    5   71 1    
    12    6    7 1    
    13    6   72 1    
    14    6   73 1    
    15    7    8 1    
    16    8    9 1    
    17    8   74 1    
    18    8   75 1    
    19    9   10 ar   
    20    9   14 ar   
    21   10   11 ar   
    22   10   76 1    
    23   11   12 ar   
    24   11   48 1    
    25   12   13 ar   
    26   12   77 1    
    27   13   14 ar   
    28   13   15 1    
    29   14   78 1    
    30   15   16 1    
    31   15   79 1    
    32   15   80 1    
    33   16   17 1    
    34   17   18 1    
    35   17   81 1    
    36   17   82 1    
    37   18   19 1    
    38   18   22 1    
    39   18   83 1    
    40   19   20 am   BACKBONE|DICT|INTERRES
    41   19   21 2    
    42   20   84 1    
    43   20   85 1    
    44   22   23 am   BACKBONE|DICT|INTERRES
    45   22   86 1    
    46   23   24 2    
    47   23   25 1    
    48   25   26 1    
    49   25   27 1    
    50   25   87 1    
    51   26   88 1    
    52   26   89 1    
    53   26   90 1    
    54   27   28 am   BACKBONE|DICT|INTERRES
    55   27   91 1    
    56   28   29 2    
    57   28   30 1    
    58   30   31 1    
    59   30   32 1    
    60   30   92 1    
    61   31   93 1    
    62   31   94 1    
    63   31   95 1    
    64   32   33 am   BACKBONE|DICT|INTERRES
    65   32   96 1    
    66   33   34 2    
    67   33   35 1    
    68   35   36 1    
    69   35   37 1    
    70   35   97 1    
    71   36   98 1    
    72   36   99 1    
    73   36  100 1    
    74   37   38 am   BACKBONE|DICT|INTERRES
    75   37  101 1    
    76   38   39 2    
    77   38   40 1    
    78   40   41 1    
    79   40   42 1    
    80   40  102 1    
    81   41  103 1    
    82   41  104 1    
    83   41  105 1    
    84   42   43 am   BACKBONE|DICT|INTERRES
    85   42  106 1    
    86   43   44 2    
    87   43   45 1    
    88   45   46 1    
    89   45   49 1    
    90   45  107 1    
    91   46   47 1    
    92   46  108 1    
    93   46  109 1    
    94   47   48 1    
    95   48  110 1    
    96   48  111 1    
    97   49   50 am   BACKBONE|DICT|INTERRES
    98   49  112 1    
    99   50   51 2    
   100   50   52 1    
   101   52   53 1    
   102   52   54 1    
   103   52  113 1    
   104   53  114 1    
   105   53  115 1    
   106   53  116 1    
   107   54   55 am   BACKBONE|DICT|INTERRES
   108   54  117 1    
   109   55   56 2    
   110   55   57 1    
   111   57   58 1    
   112   57   59 1    
   113   57  118 1    
   114   58  119 1    
   115   58  120 1    
   116   58  121 1    
   117   59   60 am   BACKBONE|DICT|INTERRES
   118   59  122 1    
   119   60   61 2    
   120   60   62 1    
   121   62   63 1    
   122   62   64 1    
   123   62  123 1    
   124   63  124 1    
   125   63  125 1    
   126   63  126 1    
   127   64   65 am   BACKBONE|DICT|INTERRES
   128   64  127 1    
   129   65   66 2    
@<TRIPOS>SUBSTRUCTURE
     1 UNK         1 GROUP             0       ****    0 ROOT    
