@<TRIPOS>MOLECULE
3R135
127   129    1
SMALL
USER_CHARGES


@<TRIPOS>ATOM
      1 CA        -83.1194   29.7940  -74.4984 C.3       0 UNK        -0.1998 
      2 C         -82.1229   28.6698  -74.2628 C.2       0 UNK         0.4909 
      3 O         -82.4019   27.5233  -74.6142 O.2       0 UNK        -0.5240 
      4 N         -80.9510   28.9932  -73.6946 N.am      1 UNK        -0.4739 
      5 CA        -79.8770   28.0582  -73.3078 C.3       1 UNK         0.0864 
      6 C6        -80.2727   27.1661  -72.0964 C.3       11 UNK        -0.0881 
      7 S7        -80.5994   28.1807  -70.6081 S.3       11 UNK        -0.2682 
      8 C8        -79.2809   27.6825  -69.4413 C.3       11 UNK         0.0289 
      9 C9        -77.9024   27.5619  -70.0827 C.ar      11 UNK        -0.0687 
     10 C10       -77.1778   26.3730  -69.9507 C.ar      11 UNK        -0.0823 
     11 C11       -75.9446   26.2174  -70.5888 C.ar      11 UNK        -0.0830 
     12 C12       -75.4321   27.2655  -71.3586 C.ar      11 UNK        -0.1021 
     13 C13       -76.1578   28.4471  -71.5192 C.ar      11 UNK        -0.0753 
     14 C14       -77.3728   28.6066  -70.8472 C.ar      11 UNK        -0.0933 
     15 C15       -75.6682   29.5111  -72.4864 C.3       11 UNK         0.0166 
     16 S16       -76.0465   29.0053  -74.1944 S.3       11 UNK        -0.2615 
     17 C17       -75.7891   30.5621  -75.1047 C.3       11 UNK        -0.0865 
     18 CA        -74.7417   30.4242  -76.2470 C.3       10 UNK         0.0862 
     19 C         -74.7579   31.6379  -77.2282 C.2       10 UNK         0.5551 
     20 N         -73.6446   31.9896  -77.8607 N.am      10 UNK        -0.7319 
     21 O         -75.7982   32.2538  -77.4480 O.2       10 UNK        -0.5018 
     22 N         -73.3944   30.0376  -75.7802 N.am      10 UNK        -0.4509 
     23 C         -72.5968   30.7720  -74.9909 C.2       10 UNK         0.4899 
     24 O         -72.9476   31.8264  -74.4581 O.2       10 UNK        -0.4839 
     25 CA        -71.1447   30.2799  -74.8167 C.3       9 UNK         0.0222 
     26 CB        -70.3747   31.0547  -73.7247 C.3       9 UNK        -0.1966 
     27 N         -71.0136   28.8333  -74.6119 N.am      9 UNK        -0.4218 
     28 C         -71.4864   28.1006  -73.5945 C.2       9 UNK         0.5020 
     29 O         -72.1840   28.5491  -72.6845 O.2       9 UNK        -0.5274 
     30 CA        -71.0885   26.6099  -73.5981 C.3       8 UNK         0.0270 
     31 CB        -71.6472   25.8348  -72.3917 C.3       8 UNK        -0.1976 
     32 N         -71.5045   25.9359  -74.8290 N.am      8 UNK        -0.4313 
     33 C         -70.8735   26.0105  -76.0074 C.2       8 UNK         0.5041 
     34 O         -69.8374   26.6530  -76.1852 O.2       8 UNK        -0.5577 
     35 CA        -71.5364   25.2907  -77.1930 C.3       7 UNK         0.0284 
     36 CB        -71.0536   23.8343  -77.2798 C.3       7 UNK        -0.1958 
     37 N         -73.0015   25.3163  -77.1409 N.am      7 UNK        -0.4454 
     38 C         -73.7590   26.4186  -77.2035 C.2       7 UNK         0.5089 
     39 O         -73.2970   27.5567  -77.2853 O.2       7 UNK        -0.5125 
     40 CA        -75.2863   26.2249  -77.1665 C.3       6 UNK         0.0408 
     41 CB        -75.7926   25.6909  -78.5213 C.3       6 UNK        -0.1791 
     42 N         -75.7755   25.4194  -76.0325 N.am      6 UNK        -0.4762 
     43 C         -75.5601   24.1185  -75.7761 C.2       6 UNK         0.5007 
     44 O         -74.9429   23.3643  -76.5293 O.2       6 UNK        -0.5032 
     45 CA        -76.0717   23.5823  -74.4308 C.3       5 UNK         0.0783 
     46 C46       -75.4399   24.3601  -73.2496 C.3       11 UNK        -0.0857 
     47 S47       -75.8640   23.6460  -71.6253 S.3       11 UNK        -0.2512 
     48 C48       -75.1929   24.8989  -70.4829 C.3       11 UNK         0.0225 
     49 N         -77.5365   23.6075  -74.3929 N.am      5 UNK        -0.4615 
     50 C         -78.3019   22.5096  -74.3390 C.2       4 UNK         0.5053 
     51 O         -77.8732   21.3634  -74.4785 O.2       4 UNK        -0.5105 
     52 CA        -79.7942   22.7112  -74.0460 C.3       4 UNK         0.0263 
     53 CB        -79.9991   23.1862  -72.5966 C.3       4 UNK        -0.1981 
     54 N         -80.3990   23.6748  -74.9641 N.am      4 UNK        -0.4224 
     55 C         -81.2512   23.3590  -75.9511 C.2       3 UNK         0.4895 
     56 O         -81.6005   22.2067  -76.2116 O.2       3 UNK        -0.5091 
     57 CA        -81.8405   24.5125  -76.7863 C.3       3 UNK         0.0250 
     58 CB        -83.2866   24.8023  -76.3526 C.3       3 UNK        -0.1996 
     59 N         -81.0529   25.7438  -76.6975 N.am      3 UNK        -0.4254 
     60 C         -79.8795   25.9211  -77.3231 C.2       2 UNK         0.5004 
     61 O         -79.4152   25.1142  -78.1276 O.2       2 UNK        -0.5226 
     62 CA        -79.0644   27.1830  -76.9814 C.3       2 UNK         0.0269 
     63 CB        -79.1592   28.2221  -78.1091 C.3       2 UNK        -0.1926 
     64 N         -79.4281   27.8133  -75.7114 N.am      2 UNK        -0.4687 
     65 C         -79.3185   27.2469  -74.5004 C.2       1 UNK         0.5165 
     66 O         -78.8322   26.1265  -74.3270 O.2       1 UNK        -0.5079 
     67 H67       -82.7393   30.7556  -74.1540 H         1 UNK         0.0900 
     68 H68       -83.3457   29.8780  -75.5609 H         1 UNK         0.0900 
     69 H69       -84.0479   29.5864  -73.9674 H         1 UNK         0.0900 
     70 H70       -80.7849   29.9576  -73.4414 H         1 UNK         0.2959 
     71 H71       -79.0381   28.6823  -73.0021 H         1 UNK         0.1079 
     72 H72       -79.4917   26.4404  -71.8695 H         1 UNK         0.0837 
     73 H73       -81.1634   26.5786  -72.3243 H         1 UNK         0.0837 
     74 H74       -79.2326   28.4116  -68.6316 H         1 UNK         0.0685 
     75 H75       -79.5746   26.7360  -68.9846 H         1 UNK         0.0685 
     76 H76       -77.5850   25.5527  -69.3752 H         1 UNK         0.1434 
     77 H77       -74.4944   27.1494  -71.8828 H         1 UNK         0.1329 
     78 H78       -77.9397   29.5194  -70.9688 H         1 UNK         0.1335 
     79 H79       -76.1462   30.4675  -72.2694 H         1 UNK         0.0680 
     80 H80       -74.5938   29.6635  -72.3768 H         1 UNK         0.0680 
     81 H81       -75.5118   31.3649  -74.4208 H         1 UNK         0.1032 
     82 H82       -76.7622   30.8444  -75.5102 H         1 UNK         0.1032 
     83 H83       -75.0712   29.5922  -76.8690 H         1 UNK         0.0461 
     84 H84       -72.7895   31.4795  -77.7101 H         1 UNK         0.3453 
     85 H85       -73.6645   32.7676  -78.5011 H         1 UNK         0.3453 
     86 H86       -73.0421   29.1759  -76.1861 H         1 UNK         0.2984 
     87 H87       -70.6492   30.4873  -75.7661 H         1 UNK         0.0554 
     88 H88       -70.3474   32.1224  -73.9463 H         1 UNK         0.0847 
     89 H89       -69.3414   30.7160  -73.6497 H         1 UNK         0.0847 
     90 H90       -70.8381   30.9391  -72.7443 H         1 UNK         0.0847 
     91 H91       -70.4767   28.3296  -75.3137 H         1 UNK         0.3141 
     92 H92       -69.9989   26.5739  -73.5307 H         1 UNK         0.0743 
     93 H93       -72.7344   25.8122  -72.4043 H         1 UNK         0.0784 
     94 H94       -71.2894   24.8051  -72.3797 H         1 UNK         0.0784 
     95 H95       -71.3393   26.2946  -71.4516 H         1 UNK         0.0784 
     96 H96       -72.3710   25.4212  -74.7943 H         1 UNK         0.3213 
     97 H97       -71.2285   25.8096  -78.1034 H         1 UNK         0.0855 
     98 H98       -71.3613   23.2528  -76.4097 H         1 UNK         0.0814 
     99 H99       -69.9651   23.7866  -77.3364 H         1 UNK         0.0814 
    100 H100      -71.4445   23.3393  -78.1690 H         1 UNK         0.0814 
    101 H101      -73.4883   24.4261  -77.0628 H         1 UNK         0.3105 
    102 H102      -75.7166   27.2172  -77.0258 H         1 UNK         0.0547 
    103 H103      -75.5209   26.3703  -79.3302 H         1 UNK         0.0837 
    104 H104      -75.3690   24.7167  -78.7661 H         1 UNK         0.0837 
    105 H105      -76.8754   25.5901  -78.5380 H         1 UNK         0.0837 
    106 H106      -76.2777   25.9479  -75.3311 H         1 UNK         0.3020 
    107 H107      -75.7138   22.5522  -74.3600 H         1 UNK         0.1245 
    108 H108      -75.7660   25.4001  -73.2703 H         1 UNK         0.0781 
    109 H109      -74.3523   24.3669  -73.3348 H         1 UNK         0.0781 
    110 H110      -74.1291   25.0403  -70.6741 H         1 UNK         0.0836 
    111 H111      -75.2667   24.5195  -69.4627 H         1 UNK         0.0836 
    112 H112      -77.9736   24.5215  -74.2972 H         1 UNK         0.3022 
    113 H113      -80.2824   21.7390  -74.1424 H         1 UNK         0.0747 
    114 H114      -81.0576   23.2993  -72.3622 H         1 UNK         0.0793 
    115 H115      -79.5844   22.4662  -71.8898 H         1 UNK         0.0793 
    116 H116      -79.5099   24.1414  -72.4071 H         1 UNK         0.0793 
    117 H117      -80.1189   24.6419  -74.8482 H         1 UNK         0.3047 
    118 H118      -81.8593   24.1870  -77.8288 H         1 UNK         0.0822 
    119 H119      -83.7265   25.6058  -76.9436 H         1 UNK         0.0807 
    120 H120      -83.3427   25.0892  -75.3019 H         1 UNK         0.0807 
    121 H121      -83.9166   23.9213  -76.4827 H         1 UNK         0.0807 
    122 H122      -81.3861   26.4512  -76.0488 H         1 UNK         0.2946 
    123 H123      -78.0269   26.8673  -76.8932 H         1 UNK         0.1144 
    124 H124      -78.8595   27.7894  -79.0649 H         1 UNK         0.0793 
    125 H125      -78.5026   29.0721  -77.9215 H         1 UNK         0.0793 
    126 H126      -80.1760   28.5991  -78.2256 H         1 UNK         0.0793 
    127 H127      -79.8513   28.7286  -75.7637 H         1 UNK         0.2896 
@<TRIPOS>BOND
     1    1    2 1    
     2    1   67 1    
     3    1   68 1    
     4    1   69 1    
     5    2    3 2    
     6    2    4 am   BACKBONE|DICT|INTERRES
     7    4    5 1    
     8    4   70 1    
     9    5    6 1    
    10    5   65 1    
    11    5   71 1    
    12    6    7 1    
    13    6   72 1    
    14    6   73 1    
    15    7    8 1    
    16    8    9 1    
    17    8   74 1    
    18    8   75 1    
    19    9   10 ar   
    20    9   14 ar   
    21   10   11 ar   
    22   10   76 1    
    23   11   12 ar   
    24   11   48 1    
    25   12   13 ar   
    26   12   77 1    
    27   13   14 ar   
    28   13   15 1    
    29   14   78 1    
    30   15   16 1    
    31   15   79 1    
    32   15   80 1    
    33   16   17 1    
    34   17   18 1    
    35   17   81 1    
    36   17   82 1    
    37   18   19 1    
    38   18   22 1    
    39   18   83 1    
    40   19   20 am   BACKBONE|DICT|INTERRES
    41   19   21 2    
    42   20   84 1    
    43   20   85 1    
    44   22   23 am   BACKBONE|DICT|INTERRES
    45   22   86 1    
    46   23   24 2    
    47   23   25 1    
    48   25   26 1    
    49   25   27 1    
    50   25   87 1    
    51   26   88 1    
    52   26   89 1    
    53   26   90 1    
    54   27   28 am   BACKBONE|DICT|INTERRES
    55   27   91 1    
    56   28   29 2    
    57   28   30 1    
    58   30   31 1    
    59   30   32 1    
    60   30   92 1    
    61   31   93 1    
    62   31   94 1    
    63   31   95 1    
    64   32   33 am   BACKBONE|DICT|INTERRES
    65   32   96 1    
    66   33   34 2    
    67   33   35 1    
    68   35   36 1    
    69   35   37 1    
    70   35   97 1    
    71   36   98 1    
    72   36   99 1    
    73   36  100 1    
    74   37   38 am   BACKBONE|DICT|INTERRES
    75   37  101 1    
    76   38   39 2    
    77   38   40 1    
    78   40   41 1    
    79   40   42 1    
    80   40  102 1    
    81   41  103 1    
    82   41  104 1    
    83   41  105 1    
    84   42   43 am   BACKBONE|DICT|INTERRES
    85   42  106 1    
    86   43   44 2    
    87   43   45 1    
    88   45   46 1    
    89   45   49 1    
    90   45  107 1    
    91   46   47 1    
    92   46  108 1    
    93   46  109 1    
    94   47   48 1    
    95   48  110 1    
    96   48  111 1    
    97   49   50 am   BACKBONE|DICT|INTERRES
    98   49  112 1    
    99   50   51 2    
   100   50   52 1    
   101   52   53 1    
   102   52   54 1    
   103   52  113 1    
   104   53  114 1    
   105   53  115 1    
   106   53  116 1    
   107   54   55 am   BACKBONE|DICT|INTERRES
   108   54  117 1    
   109   55   56 2    
   110   55   57 1    
   111   57   58 1    
   112   57   59 1    
   113   57  118 1    
   114   58  119 1    
   115   58  120 1    
   116   58  121 1    
   117   59   60 am   BACKBONE|DICT|INTERRES
   118   59  122 1    
   119   60   61 2    
   120   60   62 1    
   121   62   63 1    
   122   62   64 1    
   123   62  123 1    
   124   63  124 1    
   125   63  125 1    
   126   63  126 1    
   127   64   65 am   BACKBONE|DICT|INTERRES
   128   64  127 1    
   129   65   66 2    
@<TRIPOS>SUBSTRUCTURE
     1 UNK         1 GROUP             0       ****    0 ROOT    
