@<TRIPOS>MOLECULE
3R135
127   129    1
SMALL
USER_CHARGES


@<TRIPOS>ATOM
      1 CA        -83.6614   25.2923  -72.7930 C.3       0 UNK        -0.1998 
      2 C         -82.9277   25.9136  -73.9712 C.2       0 UNK         0.4909 
      3 O         -83.3206   25.6998  -75.1180 O.2       0 UNK        -0.5240 
      4 N         -81.8583   26.6699  -73.6892 N.am      1 UNK        -0.4739 
      5 CA        -80.9727   27.3516  -74.6421 C.3       1 UNK         0.0864 
      6 C6        -79.9315   28.1913  -73.8596 C.3       11 UNK        -0.0881 
      7 S7        -78.7015   29.0709  -74.8849 S.3       11 UNK        -0.2682 
      8 C8        -77.7744   29.9910  -73.6022 C.3       11 UNK         0.0289 
      9 C9        -76.8656   29.1642  -72.6843 C.ar      11 UNK        -0.0687 
     10 C10       -76.7179   27.7751  -72.8009 C.ar      11 UNK        -0.0823 
     11 C11       -75.8656   27.0676  -71.9513 C.ar      11 UNK        -0.0830 
     12 C12       -75.1420   27.7544  -70.9744 C.ar      11 UNK        -0.1021 
     13 C13       -75.2683   29.1405  -70.8456 C.ar      11 UNK        -0.0753 
     14 C14       -76.1337   29.8355  -71.6977 C.ar      11 UNK        -0.0933 
     15 C15       -74.4758   29.8771  -69.7746 C.3       11 UNK         0.0166 
     16 S16       -72.7290   30.0967  -70.2452 S.3       11 UNK        -0.2615 
     17 C17       -72.8212   31.4760  -71.4405 C.3       11 UNK        -0.0865 
     18 CA        -72.7912   31.0121  -72.9256 C.3       10 UNK         0.0862 
     19 C         -73.0288   32.1829  -73.9276 C.2       10 UNK         0.5551 
     20 N         -72.3948   32.2038  -75.0955 N.am      10 UNK        -0.7319 
     21 O         -73.8285   33.0755  -73.6581 O.2       10 UNK        -0.5018 
     22 N         -71.6444   30.1522  -73.2603 N.am      10 UNK        -0.4509 
     23 C         -70.3468   30.4868  -73.2349 C.2       10 UNK         0.4899 
     24 O         -69.9187   31.5597  -72.8090 O.2       10 UNK        -0.4839 
     25 CA        -69.3477   29.4645  -73.8158 C.3       9 UNK         0.0222 
     26 CB        -68.7157   28.6352  -72.6864 C.3       9 UNK        -0.1966 
     27 N         -69.9344   28.5586  -74.8107 N.am      9 UNK        -0.4218 
     28 C         -70.4639   28.9329  -75.9848 C.2       9 UNK         0.5020 
     29 O         -70.4478   30.0925  -76.4030 O.2       9 UNK        -0.5274 
     30 CA        -71.2035   27.8546  -76.8047 C.3       8 UNK         0.0270 
     31 CB        -70.8807   26.4019  -76.3843 C.3       8 UNK        -0.1976 
     32 N         -72.6534   28.0868  -76.7778 N.am      8 UNK        -0.4313 
     33 C         -73.4215   28.2143  -75.6865 C.2       8 UNK         0.5041 
     34 O         -73.0118   28.0472  -74.5383 O.2       8 UNK        -0.5577 
     35 CA        -74.8793   28.6436  -75.8968 C.3       7 UNK         0.0284 
     36 CB        -75.0140   29.9126  -76.7640 C.3       7 UNK        -0.1958 
     37 N         -75.7428   27.5638  -76.3771 N.am      7 UNK        -0.4454 
     38 C         -75.7128   26.9363  -77.5593 C.2       7 UNK         0.5089 
     39 O         -74.8890   27.1619  -78.4484 O.2       7 UNK        -0.5125 
     40 CA        -76.8390   25.9089  -77.7738 C.3       6 UNK         0.0408 
     41 CB        -76.7549   25.1727  -79.1289 C.3       6 UNK        -0.1791 
     42 N         -76.9714   24.9735  -76.6459 N.am      6 UNK        -0.4762 
     43 C         -76.0690   24.0509  -76.2665 C.2       6 UNK         0.5007 
     44 O         -75.0455   23.8044  -76.9060 O.2       6 UNK        -0.5032 
     45 CA        -76.3093   23.2708  -74.9535 C.3       5 UNK         0.0783 
     46 C46       -75.1522   23.4585  -73.9237 C.3       11 UNK        -0.0857 
     47 S47       -74.7031   25.1911  -73.5683 S.3       11 UNK        -0.2512 
     48 C48       -75.7244   25.5636  -72.1158 C.3       11 UNK         0.0225 
     49 N         -77.6434   23.4749  -74.3690 N.am      5 UNK        -0.4615 
     50 C         -78.2035   22.6231  -73.4983 C.2       4 UNK         0.5053 
     51 O         -77.6601   21.5918  -73.1018 O.2       4 UNK        -0.5105 
     52 CA        -79.6131   22.9612  -72.9950 C.3       4 UNK         0.0263 
     53 CB        -79.6295   24.2562  -72.1634 C.3       4 UNK        -0.1981 
     54 N         -80.5493   23.0589  -74.1137 N.am      4 UNK        -0.4224 
     55 C         -81.1909   22.0115  -74.6552 C.2       3 UNK         0.4895 
     56 O         -81.1005   20.8607  -74.2264 O.2       3 UNK        -0.5091 
     57 CA        -82.0985   22.2746  -75.8714 C.3       3 UNK         0.0250 
     58 CB        -83.5818   22.2008  -75.4730 C.3       3 UNK        -0.1996 
     59 N         -81.8337   23.5642  -76.5117 N.am      3 UNK        -0.4254 
     60 C         -80.8340   23.7792  -77.3781 C.2       2 UNK         0.5004 
     61 O         -80.0734   22.8995  -77.7812 O.2       2 UNK        -0.5226 
     62 CA        -80.6223   25.2273  -77.8485 C.3       2 UNK         0.0269 
     63 CB        -81.4508   25.5115  -79.1109 C.3       2 UNK        -0.1926 
     64 N         -80.9355   26.2304  -76.8249 N.am      2 UNK        -0.4687 
     65 C         -80.3415   26.3404  -75.6277 C.2       1 UNK         0.5165 
     66 O         -79.3887   25.6390  -75.2704 O.2       1 UNK        -0.5079 
     67 H67       -83.4238   25.7973  -71.8569 H         1 UNK         0.0900 
     68 H68       -83.3897   24.2420  -72.6919 H         1 UNK         0.0900 
     69 H69       -84.7387   25.3545  -72.9441 H         1 UNK         0.0900 
     70 H70       -81.6057   26.7899  -72.7189 H         1 UNK         0.2959 
     71 H71       -81.5862   28.0458  -75.2204 H         1 UNK         0.1079 
     72 H72       -79.4124   27.5576  -73.1415 H         1 UNK         0.0837 
     73 H73       -80.4537   28.9400  -73.2615 H         1 UNK         0.0837 
     74 H74       -77.1577   30.7334  -74.1110 H         1 UNK         0.0685 
     75 H75       -78.4847   30.5501  -72.9913 H         1 UNK         0.0685 
     76 H76       -77.2446   27.2218  -73.5630 H         1 UNK         0.1434 
     77 H77       -74.4703   27.2148  -70.3209 H         1 UNK         0.1329 
     78 H78       -76.2311   30.9081  -71.5987 H         1 UNK         0.1335 
     79 H79       -74.9259   30.8453  -69.5498 H         1 UNK         0.0680 
     80 H80       -74.5152   29.3052  -68.8463 H         1 UNK         0.0680 
     81 H81       -71.9919   32.1560  -71.2408 H         1 UNK         0.1032 
     82 H82       -73.7258   32.0519  -71.2387 H         1 UNK         0.1032 
     83 H83       -73.6582   30.3676  -73.0692 H         1 UNK         0.0461 
     84 H84       -72.5649   32.9660  -75.7318 H         1 UNK         0.3453 
     85 H85       -71.7349   31.4778  -75.3449 H         1 UNK         0.3453 
     86 H86       -71.9116   29.2513  -73.6536 H         1 UNK         0.2984 
     87 H87       -68.5548   30.0282  -74.3115 H         1 UNK         0.0554 
     88 H88       -67.9463   27.9632  -73.0669 H         1 UNK         0.0847 
     89 H89       -69.4603   28.0347  -72.1619 H         1 UNK         0.0847 
     90 H90       -68.2413   29.2819  -71.9468 H         1 UNK         0.0847 
     91 H91       -70.0447   27.5932  -74.5355 H         1 UNK         0.3141 
     92 H92       -70.8829   27.9804  -77.8398 H         1 UNK         0.0743 
     93 H93       -71.2342   26.1685  -75.3792 H         1 UNK         0.0784 
     94 H94       -71.3510   25.6906  -77.0636 H         1 UNK         0.0784 
     95 H95       -69.8073   26.2103  -76.4159 H         1 UNK         0.0784 
     96 H96       -73.1126   28.1826  -77.6762 H         1 UNK         0.3213 
     97 H97       -75.2533   28.9053  -74.9083 H         1 UNK         0.0855 
     98 H98       -74.3957   30.7193  -76.3713 H         1 UNK         0.0814 
     99 H99       -76.0431   30.2720  -76.7711 H         1 UNK         0.0814 
    100 H100      -74.7131   29.7495  -77.7987 H         1 UNK         0.0814 
    101 H101      -76.4472   27.2624  -75.7201 H         1 UNK         0.3105 
    102 H102      -77.7520   26.5037  -77.7831 H         1 UNK         0.0547 
    103 H103      -76.8347   25.8779  -79.9568 H         1 UNK         0.0837 
    104 H104      -75.8089   24.6448  -79.2502 H         1 UNK         0.0837 
    105 H105      -77.5594   24.4463  -79.2414 H         1 UNK         0.0837 
    106 H106      -77.8011   25.1182  -76.0792 H         1 UNK         0.3020 
    107 H107      -76.2805   22.2242  -75.2667 H         1 UNK         0.1245 
    108 H108      -74.2529   22.9754  -74.3097 H         1 UNK         0.0781 
    109 H109      -75.3664   22.9435  -72.9867 H         1 UNK         0.0781 
    110 H110      -75.2780   25.1096  -71.2299 H         1 UNK         0.0836 
    111 H111      -76.7125   25.1185  -72.2309 H         1 UNK         0.0836 
    112 H112      -78.1686   24.2930  -74.6569 H         1 UNK         0.3022 
    113 H113      -79.9329   22.1521  -72.3343 H         1 UNK         0.0747 
    114 H114      -80.6284   24.4655  -71.7813 H         1 UNK         0.0793 
    115 H115      -78.9684   24.1679  -71.3004 H         1 UNK         0.0793 
    116 H116      -79.3003   25.1237  -72.7329 H         1 UNK         0.0793 
    117 H117      -80.6175   23.9578  -74.5702 H         1 UNK         0.3047 
    118 H118      -81.9078   21.4775  -76.5937 H         1 UNK         0.0822 
    119 H119      -84.2306   22.3204  -76.3408 H         1 UNK         0.0807 
    120 H120      -83.8484   22.9700  -74.7490 H         1 UNK         0.0807 
    121 H121      -83.8185   21.2352  -75.0240 H         1 UNK         0.0807 
    122 H122      -82.4088   24.3502  -76.2179 H         1 UNK         0.2946 
    123 H123      -79.5715   25.3211  -78.1107 H         1 UNK         0.1144 
    124 H124      -81.2252   24.7891  -79.8968 H         1 UNK         0.0793 
    125 H125      -81.2347   26.5016  -79.5128 H         1 UNK         0.0793 
    126 H126      -82.5220   25.4546  -78.9130 H         1 UNK         0.0793 
    127 H127      -81.7442   26.8084  -77.0067 H         1 UNK         0.2896 
@<TRIPOS>BOND
     1    1    2 1    
     2    1   67 1    
     3    1   68 1    
     4    1   69 1    
     5    2    3 2    
     6    2    4 am   BACKBONE|DICT|INTERRES
     7    4    5 1    
     8    4   70 1    
     9    5    6 1    
    10    5   65 1    
    11    5   71 1    
    12    6    7 1    
    13    6   72 1    
    14    6   73 1    
    15    7    8 1    
    16    8    9 1    
    17    8   74 1    
    18    8   75 1    
    19    9   10 ar   
    20    9   14 ar   
    21   10   11 ar   
    22   10   76 1    
    23   11   12 ar   
    24   11   48 1    
    25   12   13 ar   
    26   12   77 1    
    27   13   14 ar   
    28   13   15 1    
    29   14   78 1    
    30   15   16 1    
    31   15   79 1    
    32   15   80 1    
    33   16   17 1    
    34   17   18 1    
    35   17   81 1    
    36   17   82 1    
    37   18   19 1    
    38   18   22 1    
    39   18   83 1    
    40   19   20 am   BACKBONE|DICT|INTERRES
    41   19   21 2    
    42   20   84 1    
    43   20   85 1    
    44   22   23 am   BACKBONE|DICT|INTERRES
    45   22   86 1    
    46   23   24 2    
    47   23   25 1    
    48   25   26 1    
    49   25   27 1    
    50   25   87 1    
    51   26   88 1    
    52   26   89 1    
    53   26   90 1    
    54   27   28 am   BACKBONE|DICT|INTERRES
    55   27   91 1    
    56   28   29 2    
    57   28   30 1    
    58   30   31 1    
    59   30   32 1    
    60   30   92 1    
    61   31   93 1    
    62   31   94 1    
    63   31   95 1    
    64   32   33 am   BACKBONE|DICT|INTERRES
    65   32   96 1    
    66   33   34 2    
    67   33   35 1    
    68   35   36 1    
    69   35   37 1    
    70   35   97 1    
    71   36   98 1    
    72   36   99 1    
    73   36  100 1    
    74   37   38 am   BACKBONE|DICT|INTERRES
    75   37  101 1    
    76   38   39 2    
    77   38   40 1    
    78   40   41 1    
    79   40   42 1    
    80   40  102 1    
    81   41  103 1    
    82   41  104 1    
    83   41  105 1    
    84   42   43 am   BACKBONE|DICT|INTERRES
    85   42  106 1    
    86   43   44 2    
    87   43   45 1    
    88   45   46 1    
    89   45   49 1    
    90   45  107 1    
    91   46   47 1    
    92   46  108 1    
    93   46  109 1    
    94   47   48 1    
    95   48  110 1    
    96   48  111 1    
    97   49   50 am   BACKBONE|DICT|INTERRES
    98   49  112 1    
    99   50   51 2    
   100   50   52 1    
   101   52   53 1    
   102   52   54 1    
   103   52  113 1    
   104   53  114 1    
   105   53  115 1    
   106   53  116 1    
   107   54   55 am   BACKBONE|DICT|INTERRES
   108   54  117 1    
   109   55   56 2    
   110   55   57 1    
   111   57   58 1    
   112   57   59 1    
   113   57  118 1    
   114   58  119 1    
   115   58  120 1    
   116   58  121 1    
   117   59   60 am   BACKBONE|DICT|INTERRES
   118   59  122 1    
   119   60   61 2    
   120   60   62 1    
   121   62   63 1    
   122   62   64 1    
   123   62  123 1    
   124   63  124 1    
   125   63  125 1    
   126   63  126 1    
   127   64   65 am   BACKBONE|DICT|INTERRES
   128   64  127 1    
   129   65   66 2    
@<TRIPOS>SUBSTRUCTURE
     1 UNK         1 GROUP             0       ****    0 ROOT    
