@<TRIPOS>MOLECULE
3R135
127   129    1
SMALL
USER_CHARGES


@<TRIPOS>ATOM
      1 CA        -85.5250   30.8678  -73.3513 C.3       0 UNK        -0.1998 
      2 C         -84.2699   30.8186  -74.2093 C.2       0 UNK         0.4909 
      3 O         -84.1870   31.5241  -75.2151 O.2       0 UNK        -0.5240 
      4 N         -83.2912   29.9918  -73.8189 N.am      1 UNK        -0.4739 
      5 CA        -82.0263   29.7868  -74.5372 C.3       1 UNK         0.0864 
      6 C6        -80.9578   29.1098  -73.6389 C.3       11 UNK        -0.0881 
      7 S7        -81.5082   27.5342  -72.8804 S.3       11 UNK        -0.2682 
      8 C8        -80.8542   27.6766  -71.1881 C.3       11 UNK         0.0289 
      9 C9        -79.4182   27.1781  -71.0633 C.ar      11 UNK        -0.0687 
     10 C10       -79.1517   25.9763  -70.3982 C.ar      11 UNK        -0.0823 
     11 C11       -77.8351   25.5596  -70.1761 C.ar      11 UNK        -0.0830 
     12 C12       -76.7806   26.3484  -70.6435 C.ar      11 UNK        -0.1021 
     13 C13       -77.0299   27.5266  -71.3529 C.ar      11 UNK        -0.0753 
     14 C14       -78.3514   27.9409  -71.5515 C.ar      11 UNK        -0.0933 
     15 C15       -75.8699   28.3719  -71.8621 C.3       11 UNK         0.0166 
     16 S16       -74.7775   27.4343  -72.9779 S.3       11 UNK        -0.2615 
     17 C17       -73.5817   28.7285  -73.4579 C.3       11 UNK        -0.0865 
     18 CA        -73.8011   29.2389  -74.9088 C.3       10 UNK         0.0862 
     19 C         -72.9356   30.5006  -75.2129 C.2       10 UNK         0.5551 
     20 N         -72.2352   30.5858  -76.3382 N.am      10 UNK        -0.7319 
     21 O         -72.9041   31.4313  -74.4118 O.2       10 UNK        -0.5018 
     22 N         -73.6538   28.1544  -75.8953 N.am      10 UNK        -0.4509 
     23 C         -74.2441   28.1289  -77.0963 C.2       10 UNK         0.4899 
     24 O         -75.0338   28.9891  -77.4896 O.2       10 UNK        -0.4839 
     25 CA        -73.8477   26.9592  -78.0198 C.3       9 UNK         0.0222 
     26 CB        -74.6624   26.9237  -79.3298 C.3       9 UNK        -0.1966 
     27 N         -72.4088   26.9410  -78.3040 N.am      9 UNK        -0.4218 
     28 C         -71.6648   27.9196  -78.8400 C.2       9 UNK         0.5020 
     29 O         -72.1085   29.0119  -79.1973 O.2       9 UNK        -0.5274 
     30 CA        -70.1518   27.6441  -78.9175 C.3       8 UNK         0.0270 
     31 CB        -69.3874   28.7243  -79.7063 C.3       8 UNK        -0.1976 
     32 N         -69.5972   27.5572  -77.5664 N.am      8 UNK        -0.4313 
     33 C         -69.6984   26.4911  -76.7638 C.2       8 UNK         0.5041 
     34 O         -70.1445   25.4047  -77.1441 O.2       8 UNK        -0.5577 
     35 CA        -69.2451   26.6807  -75.3022 C.3       7 UNK         0.0284 
     36 CB        -69.4885   28.1159  -74.7777 C.3       7 UNK        -0.1958 
     37 N         -69.8433   25.7093  -74.3774 N.am      7 UNK        -0.4454 
     38 C         -71.1460   25.5103  -74.1272 C.2       7 UNK         0.5089 
     39 O         -72.0715   26.0772  -74.7157 O.2       7 UNK        -0.5125 
     40 CA        -71.4474   24.5404  -72.9776 C.3       6 UNK         0.0408 
     41 CB        -71.0087   25.1471  -71.6278 C.3       6 UNK        -0.1791 
     42 N         -72.8752   24.2283  -72.9271 N.am      6 UNK        -0.4762 
     43 C         -73.3973   23.1628  -72.3015 C.2       6 UNK         0.5007 
     44 O         -72.7025   22.2853  -71.7858 O.2       6 UNK        -0.5032 
     45 CA        -74.9311   23.0425  -72.1937 C.3       5 UNK         0.0783 
     46 C46       -75.3645   23.0596  -70.7033 C.3       11 UNK        -0.0857 
     47 S47       -77.1655   22.8683  -70.4574 S.3       11 UNK        -0.2512 
     48 C48       -77.5579   24.2880  -69.3845 C.3       11 UNK         0.0225 
     49 N         -75.6190   24.0663  -72.9894 N.am      5 UNK        -0.4615 
     50 C         -76.4965   23.7930  -73.9586 C.2       4 UNK         0.5053 
     51 O         -76.7977   22.6536  -74.3262 O.2       4 UNK        -0.5105 
     52 CA        -77.1393   24.9938  -74.6531 C.3       4 UNK         0.0263 
     53 CB        -76.2659   25.4801  -75.8198 C.3       4 UNK        -0.1981 
     54 N         -78.4528   24.5843  -75.1345 N.am      4 UNK        -0.4224 
     55 C         -79.4622   25.4101  -75.4176 C.2       3 UNK         0.4895 
     56 O         -79.3544   26.6380  -75.4231 O.2       3 UNK        -0.5091 
     57 CA        -80.8120   24.7457  -75.7389 C.3       3 UNK         0.0250 
     58 CB        -81.2741   23.8312  -74.5876 C.3       3 UNK        -0.1996 
     59 N         -81.8274   25.7767  -75.9365 N.am      3 UNK        -0.4254 
     60 C         -82.4975   26.0274  -77.0669 C.2       2 UNK         0.5004 
     61 O         -82.3951   25.3510  -78.0912 O.2       2 UNK        -0.5226 
     62 CA        -83.4586   27.2335  -77.0553 C.3       2 UNK         0.0269 
     63 CB        -84.9201   26.7584  -77.0021 C.3       2 UNK        -0.1926 
     64 N         -83.2178   28.1487  -75.9347 N.am      2 UNK        -0.4687 
     65 C         -82.2036   29.0242  -75.8685 C.2       1 UNK         0.5165 
     66 O         -81.4248   29.2349  -76.7991 O.2       1 UNK        -0.5079 
     67 H67       -86.3940   30.5774  -73.9410 H         1 UNK         0.0900 
     68 H68       -85.6868   31.8797  -72.9809 H         1 UNK         0.0900 
     69 H69       -85.4588   30.1993  -72.4930 H         1 UNK         0.0900 
     70 H70       -83.4072   29.4346  -72.9836 H         1 UNK         0.2959 
     71 H71       -81.6437   30.7739  -74.8074 H         1 UNK         0.1079 
     72 H72       -80.0385   28.9272  -74.1988 H         1 UNK         0.0837 
     73 H73       -80.6793   29.8090  -72.8499 H         1 UNK         0.0837 
     74 H74       -80.9208   28.7080  -70.8398 H         1 UNK         0.0685 
     75 H75       -81.5063   27.1021  -70.5286 H         1 UNK         0.0685 
     76 H76       -79.9714   25.3808  -70.0197 H         1 UNK         0.1434 
     77 H77       -75.7588   26.0527  -70.4570 H         1 UNK         0.1329 
     78 H78       -78.5501   28.8690  -72.0679 H         1 UNK         0.1335 
     79 H79       -76.2381   29.2534  -72.3897 H         1 UNK         0.0680 
     80 H80       -75.2927   28.7329  -71.0097 H         1 UNK         0.0680 
     81 H81       -73.6518   29.5500  -72.7427 H         1 UNK         0.1032 
     82 H82       -72.5737   28.3276  -73.3446 H         1 UNK         0.1032 
     83 H83       -74.8334   29.5899  -74.9615 H         1 UNK         0.0461 
     84 H84       -71.6919   31.4156  -76.5142 H         1 UNK         0.3453 
     85 H85       -72.3144   29.8746  -77.0503 H         1 UNK         0.3453 
     86 H86       -73.0338   27.3951  -75.6202 H         1 UNK         0.2984 
     87 H87       -74.0557   26.0374  -77.4774 H         1 UNK         0.0554 
     88 H88       -74.3991   26.0584  -79.9376 H         1 UNK         0.0847 
     89 H89       -74.5019   27.8183  -79.9327 H         1 UNK         0.0847 
     90 H90       -75.7311   26.8600  -79.1209 H         1 UNK         0.0847 
     91 H91       -71.9019   26.1267  -77.9671 H         1 UNK         0.3141 
     92 H92       -70.0111   26.6911  -79.4326 H         1 UNK         0.0743 
     93 H93       -69.7741   28.8104  -80.7227 H         1 UNK         0.0784 
     94 H94       -69.4739   29.7069  -79.2404 H         1 UNK         0.0784 
     95 H95       -68.3273   28.4823  -79.7839 H         1 UNK         0.0784 
     96 H96       -69.2355   28.4157  -77.1762 H         1 UNK         0.3213 
     97 H97       -68.1702   26.4939  -75.2885 H         1 UNK         0.0855 
     98 H98       -70.5282   28.4210  -74.9009 H         1 UNK         0.0814 
     99 H99       -68.8652   28.8467  -75.2936 H         1 UNK         0.0814 
    100 H100      -69.2464   28.1947  -73.7177 H         1 UNK         0.0814 
    101 H101      -69.1795   25.1466  -73.8640 H         1 UNK         0.3105 
    102 H102      -70.8871   23.6221  -73.1660 H         1 UNK         0.0547 
    103 H103      -71.1755   24.4546  -70.8028 H         1 UNK         0.0837 
    104 H104      -69.9462   25.3923  -71.6229 H         1 UNK         0.0837 
    105 H105      -71.5557   26.0650  -71.4077 H         1 UNK         0.0837 
    106 H106      -73.4675   24.8936  -73.4079 H         1 UNK         0.3020 
    107 H107      -75.1642   22.0502  -72.5864 H         1 UNK         0.1245 
    108 H108      -75.0147   23.9687  -70.2145 H         1 UNK         0.0781 
    109 H109      -74.8856   22.2392  -70.1651 H         1 UNK         0.0781 
    110 H110      -78.4306   24.0288  -68.7832 H         1 UNK         0.0836 
    111 H111      -76.7499   24.4560  -68.6709 H         1 UNK         0.0836 
    112 H112      -75.4446   25.0309  -72.7400 H         1 UNK         0.3022 
    113 H113      -77.2628   25.7964  -73.9220 H         1 UNK         0.0747 
    114 H114      -76.6776   26.3809  -76.2753 H         1 UNK         0.0793 
    115 H115      -76.1702   24.7210  -76.5969 H         1 UNK         0.0793 
    116 H116      -75.2624   25.7217  -75.4696 H         1 UNK         0.0793 
    117 H117      -78.5945   23.5813  -75.1319 H         1 UNK         0.3047 
    118 H118      -80.6861   24.1495  -76.6450 H         1 UNK         0.0822 
    119 H119      -80.6003   22.9849  -74.4510 H         1 UNK         0.0807 
    120 H120      -82.2644   23.4198  -74.7842 H         1 UNK         0.0807 
    121 H121      -81.3200   24.3699  -73.6397 H         1 UNK         0.0807 
    122 H122      -81.9132   26.4413  -75.1789 H         1 UNK         0.2946 
    123 H123      -83.3063   27.7774  -77.9905 H         1 UNK         0.1144 
    124 H124      -85.1474   26.1001  -77.8418 H         1 UNK         0.0793 
    125 H125      -85.6127   27.5986  -77.0549 H         1 UNK         0.0793 
    126 H126      -85.1317   26.2038  -76.0870 H         1 UNK         0.0793 
    127 H127      -83.8150   28.0528  -75.1258 H         1 UNK         0.2896 
@<TRIPOS>BOND
     1    1    2 1    
     2    1   67 1    
     3    1   68 1    
     4    1   69 1    
     5    2    3 2    
     6    2    4 am   BACKBONE|DICT|INTERRES
     7    4    5 1    
     8    4   70 1    
     9    5    6 1    
    10    5   65 1    
    11    5   71 1    
    12    6    7 1    
    13    6   72 1    
    14    6   73 1    
    15    7    8 1    
    16    8    9 1    
    17    8   74 1    
    18    8   75 1    
    19    9   10 ar   
    20    9   14 ar   
    21   10   11 ar   
    22   10   76 1    
    23   11   12 ar   
    24   11   48 1    
    25   12   13 ar   
    26   12   77 1    
    27   13   14 ar   
    28   13   15 1    
    29   14   78 1    
    30   15   16 1    
    31   15   79 1    
    32   15   80 1    
    33   16   17 1    
    34   17   18 1    
    35   17   81 1    
    36   17   82 1    
    37   18   19 1    
    38   18   22 1    
    39   18   83 1    
    40   19   20 am   BACKBONE|DICT|INTERRES
    41   19   21 2    
    42   20   84 1    
    43   20   85 1    
    44   22   23 am   BACKBONE|DICT|INTERRES
    45   22   86 1    
    46   23   24 2    
    47   23   25 1    
    48   25   26 1    
    49   25   27 1    
    50   25   87 1    
    51   26   88 1    
    52   26   89 1    
    53   26   90 1    
    54   27   28 am   BACKBONE|DICT|INTERRES
    55   27   91 1    
    56   28   29 2    
    57   28   30 1    
    58   30   31 1    
    59   30   32 1    
    60   30   92 1    
    61   31   93 1    
    62   31   94 1    
    63   31   95 1    
    64   32   33 am   BACKBONE|DICT|INTERRES
    65   32   96 1    
    66   33   34 2    
    67   33   35 1    
    68   35   36 1    
    69   35   37 1    
    70   35   97 1    
    71   36   98 1    
    72   36   99 1    
    73   36  100 1    
    74   37   38 am   BACKBONE|DICT|INTERRES
    75   37  101 1    
    76   38   39 2    
    77   38   40 1    
    78   40   41 1    
    79   40   42 1    
    80   40  102 1    
    81   41  103 1    
    82   41  104 1    
    83   41  105 1    
    84   42   43 am   BACKBONE|DICT|INTERRES
    85   42  106 1    
    86   43   44 2    
    87   43   45 1    
    88   45   46 1    
    89   45   49 1    
    90   45  107 1    
    91   46   47 1    
    92   46  108 1    
    93   46  109 1    
    94   47   48 1    
    95   48  110 1    
    96   48  111 1    
    97   49   50 am   BACKBONE|DICT|INTERRES
    98   49  112 1    
    99   50   51 2    
   100   50   52 1    
   101   52   53 1    
   102   52   54 1    
   103   52  113 1    
   104   53  114 1    
   105   53  115 1    
   106   53  116 1    
   107   54   55 am   BACKBONE|DICT|INTERRES
   108   54  117 1    
   109   55   56 2    
   110   55   57 1    
   111   57   58 1    
   112   57   59 1    
   113   57  118 1    
   114   58  119 1    
   115   58  120 1    
   116   58  121 1    
   117   59   60 am   BACKBONE|DICT|INTERRES
   118   59  122 1    
   119   60   61 2    
   120   60   62 1    
   121   62   63 1    
   122   62   64 1    
   123   62  123 1    
   124   63  124 1    
   125   63  125 1    
   126   63  126 1    
   127   64   65 am   BACKBONE|DICT|INTERRES
   128   64  127 1    
   129   65   66 2    
@<TRIPOS>SUBSTRUCTURE
     1 UNK         1 GROUP             0       ****    0 ROOT    
