@<TRIPOS>MOLECULE
3R135
127   129    1
SMALL
USER_CHARGES


@<TRIPOS>ATOM
      1 CA        -82.4512   26.9365  -74.0415 C.3       0 UNK        -0.1998 
      2 C         -81.1756   26.1151  -73.9368 C.2       0 UNK         0.4909 
      3 O         -80.7552   25.5106  -74.9212 O.2       0 UNK        -0.5240 
      4 N         -80.5512   26.0956  -72.7539 N.am      1 UNK        -0.4739 
      5 CA        -79.3281   25.3384  -72.4672 C.3       1 UNK         0.0864 
      6 C6        -78.6489   25.8404  -71.1675 C.3       11 UNK        -0.0881 
      7 S7        -77.6495   27.3244  -71.4950 S.3       11 UNK        -0.2682 
      8 C8        -78.8013   28.6732  -71.1093 C.3       11 UNK         0.0289 
      9 C9        -78.2715   29.9699  -71.6944 C.ar      11 UNK        -0.0687 
     10 C10       -78.7272   30.4208  -72.9377 C.ar      11 UNK        -0.0823 
     11 C11       -78.1980   31.5847  -73.5024 C.ar      11 UNK        -0.0830 
     12 C12       -77.2072   32.2941  -72.8177 C.ar      11 UNK        -0.1021 
     13 C13       -76.7435   31.8497  -71.5768 C.ar      11 UNK        -0.0753 
     14 C14       -77.2900   30.6944  -71.0122 C.ar      11 UNK        -0.0933 
     15 C15       -75.6410   32.6135  -70.8610 C.3       11 UNK         0.0166 
     16 S16       -73.9996   32.1775  -71.5158 S.3       11 UNK        -0.2615 
     17 C17       -73.7020   30.5736  -70.6976 C.3       11 UNK        -0.0865 
     18 CA        -72.4484   29.8535  -71.2604 C.3       10 UNK         0.0862 
     19 C         -71.9886   28.6915  -70.3284 C.2       10 UNK         0.5551 
     20 N         -71.7936   27.4691  -70.8081 N.am      10 UNK        -0.7319 
     21 O         -71.7902   28.9083  -69.1354 O.2       10 UNK        -0.5018 
     22 N         -72.6379   29.4679  -72.6692 N.am      10 UNK        -0.4509 
     23 C         -71.6520   29.3265  -73.5629 C.2       10 UNK         0.4899 
     24 O         -70.4703   29.5822  -73.3235 O.2       10 UNK        -0.4839 
     25 CA        -72.0632   28.7907  -74.9510 C.3       9 UNK         0.0222 
     26 CB        -70.8523   28.3840  -75.8163 C.3       9 UNK        -0.1966 
     27 N         -73.0336   27.6882  -74.8971 N.am      9 UNK        -0.4218 
     28 C         -72.9162   26.5335  -74.2209 C.2       9 UNK         0.5020 
     29 O         -71.9802   26.2649  -73.4671 O.2       9 UNK        -0.5274 
     30 CA        -74.0334   25.4970  -74.4185 C.3       8 UNK         0.0270 
     31 CB        -75.2758   25.8680  -73.5968 C.3       8 UNK        -0.1976 
     32 N         -74.4070   25.3346  -75.8230 N.am      8 UNK        -0.4313 
     33 C         -73.6248   24.7826  -76.7616 C.2       8 UNK         0.5041 
     34 O         -72.5184   24.2907  -76.5362 O.2       8 UNK        -0.5577 
     35 CA        -74.1654   24.7888  -78.1995 C.3       7 UNK         0.0284 
     36 CB        -75.1583   23.6352  -78.4208 C.3       7 UNK        -0.1958 
     37 N         -74.7956   26.0686  -78.5304 N.am      7 UNK        -0.4454 
     38 C         -74.1151   27.1856  -78.8253 C.2       7 UNK         0.5089 
     39 O         -72.8895   27.2342  -78.9288 O.2       7 UNK        -0.5125 
     40 CA        -74.9340   28.4704  -79.0462 C.3       6 UNK         0.0408 
     41 CB        -75.2017   28.6825  -80.5446 C.3       6 UNK        -0.1791 
     42 N         -76.2075   28.4944  -78.3208 N.am      6 UNK        -0.4762 
     43 C         -76.3252   28.5754  -76.9868 C.2       6 UNK         0.5007 
     44 O         -75.3661   28.5993  -76.2146 O.2       6 UNK        -0.5032 
     45 CA        -77.7649   28.5504  -76.4262 C.3       5 UNK         0.0783 
     46 C46       -78.5351   29.8802  -76.6559 C.3       11 UNK        -0.0857 
     47 S47       -77.6611   31.4228  -76.2073 S.3       11 UNK        -0.2512 
     48 C48       -78.6834   32.0824  -74.8536 C.3       11 UNK         0.0225 
     49 N         -78.5330   27.4299  -76.9861 N.am      5 UNK        -0.4615 
     50 C         -78.1964   26.1359  -76.9341 C.2       4 UNK         0.5053 
     51 O         -77.1875   25.7021  -76.3708 O.2       4 UNK        -0.5105 
     52 CA        -79.1047   25.1710  -77.7010 C.3       4 UNK         0.0263 
     53 CB        -78.7648   25.1749  -79.2038 C.3       4 UNK        -0.1981 
     54 N         -78.9232   23.8356  -77.1444 N.am      4 UNK        -0.4224 
     55 C         -79.7982   22.8269  -77.2346 C.2       3 UNK         0.4895 
     56 O         -80.8531   22.8803  -77.8678 O.2       3 UNK        -0.5091 
     57 CA        -79.4437   21.5474  -76.4699 C.3       3 UNK         0.0250 
     58 CB        -78.3379   20.7549  -77.1945 C.3       3 UNK        -0.1996 
     59 N         -79.0439   21.8710  -75.1004 N.am      3 UNK        -0.4254 
     60 C         -79.0625   21.0236  -74.0640 C.2       2 UNK         0.5004 
     61 O         -79.4170   19.8471  -74.1484 O.2       2 UNK        -0.5226 
     62 CA        -78.5934   21.5677  -72.7012 C.3       2 UNK         0.0269 
     63 CB        -77.1994   21.0157  -72.3581 C.3       2 UNK        -0.1926 
     64 N         -78.5437   23.0329  -72.6517 N.am      2 UNK        -0.4687 
     65 C         -79.6002   23.8209  -72.4105 C.2       1 UNK         0.5165 
     66 O         -80.7255   23.3933  -72.1401 O.2       1 UNK        -0.5079 
     67 H67       -83.2874   26.2948  -74.3178 H         1 UNK         0.0900 
     68 H68       -82.3410   27.7026  -74.8085 H         1 UNK         0.0900 
     69 H69       -82.6974   27.4301  -73.1016 H         1 UNK         0.0900 
     70 H70       -80.9689   26.5687  -71.9666 H         1 UNK         0.2959 
     71 H71       -78.6449   25.4967  -73.3060 H         1 UNK         0.1079 
     72 H72       -79.3771   26.0327  -70.3774 H         1 UNK         0.0837 
     73 H73       -77.9609   25.0951  -70.7629 H         1 UNK         0.0837 
     74 H74       -78.9171   28.7602  -70.0279 H         1 UNK         0.0685 
     75 H75       -79.7891   28.4547  -71.5151 H         1 UNK         0.0685 
     76 H76       -79.4805   29.8577  -73.4714 H         1 UNK         0.1434 
     77 H77       -76.7823   33.1858  -73.2586 H         1 UNK         0.1329 
     78 H78       -76.9308   30.3389  -70.0561 H         1 UNK         0.1335 
     79 H79       -75.6726   32.4288  -69.7860 H         1 UNK         0.0680 
     80 H80       -75.7980   33.6854  -70.9908 H         1 UNK         0.0680 
     81 H81       -73.5939   30.7716  -69.6293 H         1 UNK         0.1032 
     82 H82       -74.5793   29.9342  -70.8031 H         1 UNK         0.1032 
     83 H83       -71.6289   30.5741  -71.2245 H         1 UNK         0.0461 
     84 H84       -71.9056   27.2582  -71.7946 H         1 UNK         0.3453 
     85 H85       -71.4908   26.7431  -70.1791 H         1 UNK         0.3453 
     86 H86       -73.5795   29.2332  -72.9461 H         1 UNK         0.2984 
     87 H87       -72.5691   29.6140  -75.4573 H         1 UNK         0.0554 
     88 H88       -71.1675   28.0454  -76.8035 H         1 UNK         0.0847 
     89 H89       -70.2798   27.5790  -75.3540 H         1 UNK         0.0847 
     90 H90       -70.1739   29.2249  -75.9648 H         1 UNK         0.0847 
     91 H91       -73.8848   27.8428  -75.4367 H         1 UNK         0.3141 
     92 H92       -73.6629   24.5356  -74.0562 H         1 UNK         0.0743 
     93 H93       -75.0254   25.9833  -72.5413 H         1 UNK         0.0784 
     94 H94       -75.7195   26.8061  -73.9334 H         1 UNK         0.0784 
     95 H95       -76.0409   25.0957  -73.6671 H         1 UNK         0.0784 
     96 H96       -75.3362   25.6549  -76.0864 H         1 UNK         0.3213 
     97 H97       -73.3196   24.6343  -78.8736 H         1 UNK         0.0855 
     98 H98       -76.0295   23.7140  -77.7720 H         1 UNK         0.0814 
     99 H99       -74.6866   22.6741  -78.2116 H         1 UNK         0.0814 
    100 H100      -75.5071   23.6041  -79.4530 H         1 UNK         0.0814 
    101 H101      -75.7977   26.1306  -78.4339 H         1 UNK         0.3105 
    102 H102      -74.3303   29.3070  -78.6875 H         1 UNK         0.0547 
    103 H103      -75.8204   27.8873  -80.9625 H         1 UNK         0.0837 
    104 H104      -75.7035   29.6325  -80.7286 H         1 UNK         0.0837 
    105 H105      -74.2680   28.6982  -81.1088 H         1 UNK         0.0837 
    106 H106      -77.0496   28.4666  -78.8774 H         1 UNK         0.3020 
    107 H107      -77.6806   28.3861  -75.3491 H         1 UNK         0.1245 
    108 H108      -79.4869   29.8368  -76.1249 H         1 UNK         0.0781 
    109 H109      -78.7991   29.9749  -77.7108 H         1 UNK         0.0781 
    110 H110      -78.6297   33.1720  -74.8805 H         1 UNK         0.0836 
    111 H111      -79.7352   31.8357  -75.0051 H         1 UNK         0.0836 
    112 H112      -79.3829   27.6786  -77.4712 H         1 UNK         0.3022 
    113 H113      -80.1420   25.4808  -77.5571 H         1 UNK         0.0747 
    114 H114      -78.8816   26.1705  -79.6334 H         1 UNK         0.0793 
    115 H115      -79.4238   24.5083  -79.7604 H         1 UNK         0.0793 
    116 H116      -77.7392   24.8559  -79.3888 H         1 UNK         0.0793 
    117 H117      -78.0745   23.7354  -76.6037 H         1 UNK         0.3047 
    118 H118      -80.3455   20.9320  -76.4315 H         1 UNK         0.0822 
    119 H119      -78.6173   20.5526  -78.2294 H         1 UNK         0.0807 
    120 H120      -78.1601   19.7918  -76.7159 H         1 UNK         0.0807 
    121 H121      -77.3925   21.2983  -77.2108 H         1 UNK         0.0807 
    122 H122      -78.8190   22.8374  -74.9149 H         1 UNK         0.2946 
    123 H123      -79.2992   21.2072  -71.9487 H         1 UNK         0.1144 
    124 H124      -77.2018   19.9247  -72.3521 H         1 UNK         0.0793 
    125 H125      -76.8758   21.3413  -71.3692 H         1 UNK         0.0793 
    126 H126      -76.4475   21.3353  -73.0809 H         1 UNK         0.0793 
    127 H127      -77.6434   23.4560  -72.8268 H         1 UNK         0.2896 
@<TRIPOS>BOND
     1    1    2 1    
     2    1   67 1    
     3    1   68 1    
     4    1   69 1    
     5    2    3 2    
     6    2    4 am   BACKBONE|DICT|INTERRES
     7    4    5 1    
     8    4   70 1    
     9    5    6 1    
    10    5   65 1    
    11    5   71 1    
    12    6    7 1    
    13    6   72 1    
    14    6   73 1    
    15    7    8 1    
    16    8    9 1    
    17    8   74 1    
    18    8   75 1    
    19    9   10 ar   
    20    9   14 ar   
    21   10   11 ar   
    22   10   76 1    
    23   11   12 ar   
    24   11   48 1    
    25   12   13 ar   
    26   12   77 1    
    27   13   14 ar   
    28   13   15 1    
    29   14   78 1    
    30   15   16 1    
    31   15   79 1    
    32   15   80 1    
    33   16   17 1    
    34   17   18 1    
    35   17   81 1    
    36   17   82 1    
    37   18   19 1    
    38   18   22 1    
    39   18   83 1    
    40   19   20 am   BACKBONE|DICT|INTERRES
    41   19   21 2    
    42   20   84 1    
    43   20   85 1    
    44   22   23 am   BACKBONE|DICT|INTERRES
    45   22   86 1    
    46   23   24 2    
    47   23   25 1    
    48   25   26 1    
    49   25   27 1    
    50   25   87 1    
    51   26   88 1    
    52   26   89 1    
    53   26   90 1    
    54   27   28 am   BACKBONE|DICT|INTERRES
    55   27   91 1    
    56   28   29 2    
    57   28   30 1    
    58   30   31 1    
    59   30   32 1    
    60   30   92 1    
    61   31   93 1    
    62   31   94 1    
    63   31   95 1    
    64   32   33 am   BACKBONE|DICT|INTERRES
    65   32   96 1    
    66   33   34 2    
    67   33   35 1    
    68   35   36 1    
    69   35   37 1    
    70   35   97 1    
    71   36   98 1    
    72   36   99 1    
    73   36  100 1    
    74   37   38 am   BACKBONE|DICT|INTERRES
    75   37  101 1    
    76   38   39 2    
    77   38   40 1    
    78   40   41 1    
    79   40   42 1    
    80   40  102 1    
    81   41  103 1    
    82   41  104 1    
    83   41  105 1    
    84   42   43 am   BACKBONE|DICT|INTERRES
    85   42  106 1    
    86   43   44 2    
    87   43   45 1    
    88   45   46 1    
    89   45   49 1    
    90   45  107 1    
    91   46   47 1    
    92   46  108 1    
    93   46  109 1    
    94   47   48 1    
    95   48  110 1    
    96   48  111 1    
    97   49   50 am   BACKBONE|DICT|INTERRES
    98   49  112 1    
    99   50   51 2    
   100   50   52 1    
   101   52   53 1    
   102   52   54 1    
   103   52  113 1    
   104   53  114 1    
   105   53  115 1    
   106   53  116 1    
   107   54   55 am   BACKBONE|DICT|INTERRES
   108   54  117 1    
   109   55   56 2    
   110   55   57 1    
   111   57   58 1    
   112   57   59 1    
   113   57  118 1    
   114   58  119 1    
   115   58  120 1    
   116   58  121 1    
   117   59   60 am   BACKBONE|DICT|INTERRES
   118   59  122 1    
   119   60   61 2    
   120   60   62 1    
   121   62   63 1    
   122   62   64 1    
   123   62  123 1    
   124   63  124 1    
   125   63  125 1    
   126   63  126 1    
   127   64   65 am   BACKBONE|DICT|INTERRES
   128   64  127 1    
   129   65   66 2    
@<TRIPOS>SUBSTRUCTURE
     1 UNK         1 GROUP             0       ****    0 ROOT    
