@<TRIPOS>MOLECULE
3R135
127   129    1
SMALL
USER_CHARGES


@<TRIPOS>ATOM
      1 CA        -81.6562   30.1489  -75.6517 C.3       0 UNK        -0.1998 
      2 C         -81.1215   29.0808  -74.7100 C.2       0 UNK         0.4909 
      3 O         -80.0910   28.4725  -74.9961 O.2       0 UNK        -0.5240 
      4 N         -81.8145   28.8456  -73.5898 N.am      1 UNK        -0.4739 
      5 CA        -81.4576   27.8527  -72.5716 C.3       1 UNK         0.0864 
      6 C6        -81.9678   28.2616  -71.1619 C.3       11 UNK        -0.0881 
      7 S7        -81.4025   29.9160  -70.6275 S.3       11 UNK        -0.2682 
      8 C8        -80.0655   29.5201  -69.4561 C.3       11 UNK         0.0289 
      9 C9        -78.7956   29.1020  -70.1802 C.ar      11 UNK        -0.0687 
     10 C10       -78.4916   27.7485  -70.3484 C.ar      11 UNK        -0.0823 
     11 C11       -77.3430   27.3632  -71.0449 C.ar      11 UNK        -0.0830 
     12 C12       -76.4818   28.3409  -71.5508 C.ar      11 UNK        -0.1021 
     13 C13       -76.7732   29.6968  -71.3865 C.ar      11 UNK        -0.0753 
     14 C14       -77.9297   30.0722  -70.6955 C.ar      11 UNK        -0.0933 
     15 C15       -75.8589   30.7497  -71.9927 C.3       11 UNK         0.0166 
     16 S16       -74.2549   30.8229  -71.1376 S.3       11 UNK        -0.2615 
     17 C17       -73.4813   32.2370  -71.9984 C.3       11 UNK        -0.0865 
     18 CA        -72.2945   31.8587  -72.9251 C.3       10 UNK         0.0862 
     19 C         -71.0037   31.4761  -72.1398 C.2       10 UNK         0.5551 
     20 N         -70.3113   30.3912  -72.4654 N.am      10 UNK        -0.7319 
     21 O         -70.6063   32.1943  -71.2253 O.2       10 UNK        -0.5018 
     22 N         -72.6942   30.8941  -73.9643 N.am      10 UNK        -0.4509 
     23 C         -72.2301   30.8912  -75.2198 C.2       10 UNK         0.4899 
     24 O         -71.4650   31.7488  -75.6652 O.2       10 UNK        -0.4839 
     25 CA        -72.6953   29.7294  -76.1249 C.3       9 UNK         0.0222 
     26 CB        -71.9069   29.6631  -77.4496 C.3       9 UNK        -0.1966 
     27 N         -72.6850   28.4097  -75.4772 N.am      9 UNK        -0.4218 
     28 C         -71.6649   27.8298  -74.8230 C.2       9 UNK         0.5020 
     29 O         -70.5950   28.3842  -74.5711 O.2       9 UNK        -0.5274 
     30 CA        -71.8705   26.3714  -74.3910 C.3       8 UNK         0.0270 
     31 CB        -72.8365   26.2739  -73.1960 C.3       8 UNK        -0.1976 
     32 N         -72.3579   25.5598  -75.5086 N.am      8 UNK        -0.4313 
     33 C         -71.5765   25.0340  -76.4642 C.2       8 UNK         0.5041 
     34 O         -70.3479   25.1213  -76.4653 O.2       8 UNK        -0.5577 
     35 CA        -72.2670   24.2703  -77.6103 C.3       7 UNK         0.0284 
     36 CB        -72.2313   22.7567  -77.3436 C.3       7 UNK        -0.1958 
     37 N         -73.6536   24.6944  -77.8189 N.am      7 UNK        -0.4454 
     38 C         -74.0071   25.8035  -78.4884 C.2       7 UNK         0.5089 
     39 O         -73.2068   26.5193  -79.0895 O.2       7 UNK        -0.5125 
     40 CA        -75.4965   26.2064  -78.4648 C.3       6 UNK         0.0408 
     41 CB        -76.2044   25.7199  -79.7383 C.3       6 UNK        -0.1791 
     42 N         -76.2185   25.7071  -77.2913 N.am      6 UNK        -0.4762 
     43 C         -75.9200   26.0139  -76.0198 C.2       6 UNK         0.5007 
     44 O         -75.0716   26.8520  -75.7112 O.2       6 UNK        -0.5032 
     45 CA        -76.5958   25.1943  -74.9026 C.3       5 UNK         0.0783 
     46 C46       -77.5461   26.0731  -74.0628 C.3       11 UNK        -0.0857 
     47 S47       -78.1353   25.2016  -72.5710 S.3       11 UNK        -0.2512 
     48 C48       -77.0522   25.8899  -71.2796 C.3       11 UNK         0.0225 
     49 N         -77.2468   23.9745  -75.3952 N.am      5 UNK        -0.4615 
     50 C         -76.5980   22.9024  -75.8709 C.2       4 UNK         0.5053 
     51 O         -75.3736   22.8557  -75.9907 O.2       4 UNK        -0.5105 
     52 CA        -77.4453   21.6949  -76.3094 C.3       4 UNK         0.0263 
     53 CB        -77.5099   20.6548  -75.1799 C.3       4 UNK        -0.1981 
     54 N         -78.8080   22.0550  -76.7107 N.am      4 UNK        -0.4224 
     55 C         -79.1231   22.7323  -77.8247 C.2       3 UNK         0.4895 
     56 O         -78.2975   23.0916  -78.6641 O.2       3 UNK        -0.5091 
     57 CA        -80.6063   23.1066  -78.0096 C.3       3 UNK         0.0250 
     58 CB        -81.3621   21.9800  -78.7323 C.3       3 UNK        -0.1996 
     59 N         -81.2895   23.4295  -76.7488 N.am      3 UNK        -0.4254 
     60 C         -80.9457   24.4494  -75.9501 C.2       2 UNK         0.5004 
     61 O         -80.0296   25.2317  -76.2100 O.2       2 UNK        -0.5226 
     62 CA        -81.7076   24.5860  -74.6259 C.3       2 UNK         0.0269 
     63 CB        -81.3614   23.4191  -73.6765 C.3       2 UNK        -0.1926 
     64 N         -81.3556   25.8688  -74.0159 N.am      2 UNK        -0.4687 
     65 C         -81.9876   26.4661  -73.0005 C.2       1 UNK         0.5165 
     66 O         -82.9762   25.9839  -72.4436 O.2       1 UNK        -0.5079 
     67 H67       -80.9145   30.9360  -75.7841 H         1 UNK         0.0900 
     68 H68       -81.8705   29.7144  -76.6277 H         1 UNK         0.0900 
     69 H69       -82.5712   30.6049  -75.2741 H         1 UNK         0.0900 
     70 H70       -82.6592   29.3684  -73.4071 H         1 UNK         0.2959 
     71 H71       -80.3687   27.7784  -72.5173 H         1 UNK         0.1079 
     72 H72       -83.0592   28.2755  -71.1415 H         1 UNK         0.0837 
     73 H73       -81.6669   27.5197  -70.4201 H         1 UNK         0.0837 
     74 H74       -80.3940   28.7447  -68.7622 H         1 UNK         0.0685 
     75 H75       -79.8611   30.4025  -68.8479 H         1 UNK         0.0685 
     76 H76       -79.1614   26.9923  -69.9621 H         1 UNK         0.1434 
     77 H77       -75.5923   28.0505  -72.0931 H         1 UNK         0.1329 
     78 H78       -78.1691   31.1198  -70.5731 H         1 UNK         0.1335 
     79 H79       -75.6985   30.5256  -73.0484 H         1 UNK         0.0680 
     80 H80       -76.3331   31.7317  -71.9520 H         1 UNK         0.0680 
     81 H81       -73.1641   32.9620  -71.2464 H         1 UNK         0.1032 
     82 H82       -74.2363   32.7600  -72.5871 H         1 UNK         0.1032 
     83 H83       -72.0226   32.7870  -73.4310 H         1 UNK         0.0461 
     84 H84       -70.5811   29.8022  -73.2470 H         1 UNK         0.3453 
     85 H85       -69.4765   30.1726  -71.9461 H         1 UNK         0.3453 
     86 H86       -73.2886   30.1380  -73.6586 H         1 UNK         0.2984 
     87 H87       -73.7374   29.9372  -76.3720 H         1 UNK         0.0554 
     88 H88       -71.9878   30.5982  -78.0052 H         1 UNK         0.0847 
     89 H89       -72.2850   28.8724  -78.0968 H         1 UNK         0.0847 
     90 H90       -70.8465   29.4751  -77.2770 H         1 UNK         0.0847 
     91 H91       -73.5409   27.8675  -75.5876 H         1 UNK         0.3141 
     92 H92       -70.9041   25.9785  -74.0668 H         1 UNK         0.0743 
     93 H93       -72.4526   26.8360  -72.3434 H         1 UNK         0.0784 
     94 H94       -73.8243   26.6728  -73.4242 H         1 UNK         0.0784 
     95 H95       -72.9601   25.2406  -72.8712 H         1 UNK         0.0784 
     96 H96       -73.3597   25.4986  -75.6220 H         1 UNK         0.3213 
     97 H97       -71.6998   24.4639  -78.5237 H         1 UNK         0.0855 
     98 H98       -72.7456   22.4956  -76.4180 H         1 UNK         0.0814 
     99 H99       -71.2035   22.4024  -77.2537 H         1 UNK         0.0814 
    100 H100      -72.6964   22.1979  -78.1558 H         1 UNK         0.0814 
    101 H101      -74.3711   24.1433  -77.3596 H         1 UNK         0.3105 
    102 H102      -75.5412   27.2972  -78.4416 H         1 UNK         0.0547 
    103 H103      -77.2419   26.0531  -79.7691 H         1 UNK         0.0837 
    104 H104      -76.2005   24.6315  -79.8113 H         1 UNK         0.0837 
    105 H105      -75.7129   26.1086  -80.6312 H         1 UNK         0.0837 
    106 H106      -76.9305   25.0082  -77.4589 H         1 UNK         0.3020 
    107 H107      -75.7832   24.8766  -74.2449 H         1 UNK         0.1245 
    108 H108      -78.4098   26.3789  -74.6510 H         1 UNK         0.0781 
    109 H109      -77.0563   27.0024  -73.7767 H         1 UNK         0.0781 
    110 H110      -76.0084   25.7353  -71.5578 H         1 UNK         0.0836 
    111 H111      -77.2075   25.3358  -70.3528 H         1 UNK         0.0836 
    112 H112      -78.2572   23.9773  -75.3777 H         1 UNK         0.3022 
    113 H113      -76.9464   21.2395  -77.1677 H         1 UNK         0.0747 
    114 H114      -78.0416   19.7571  -75.4961 H         1 UNK         0.0793 
    115 H115      -76.5083   20.3457  -74.8772 H         1 UNK         0.0793 
    116 H116      -78.0104   21.0492  -74.2944 H         1 UNK         0.0793 
    117 H117      -79.5535   21.7930  -76.0826 H         1 UNK         0.3047 
    118 H118      -80.6388   23.9979  -78.6403 H         1 UNK         0.0822 
    119 H119      -82.3892   22.2700  -78.9549 H         1 UNK         0.0807 
    120 H120      -81.3915   21.0651  -78.1393 H         1 UNK         0.0807 
    121 H121      -80.8837   21.7372  -79.6824 H         1 UNK         0.0807 
    122 H122      -82.0528   22.8260  -76.4768 H         1 UNK         0.2946 
    123 H123      -82.7781   24.5838  -74.8425 H         1 UNK         0.1144 
    124 H124      -80.2915   23.3674  -73.4742 H         1 UNK         0.0793 
    125 H125      -81.6584   22.4602  -74.1020 H         1 UNK         0.0793 
    126 H126      -81.8751   23.5102  -72.7197 H         1 UNK         0.0793 
    127 H127      -80.6016   26.3621  -74.4873 H         1 UNK         0.2896 
@<TRIPOS>BOND
     1    1    2 1    
     2    1   67 1    
     3    1   68 1    
     4    1   69 1    
     5    2    3 2    
     6    2    4 am   BACKBONE|DICT|INTERRES
     7    4    5 1    
     8    4   70 1    
     9    5    6 1    
    10    5   65 1    
    11    5   71 1    
    12    6    7 1    
    13    6   72 1    
    14    6   73 1    
    15    7    8 1    
    16    8    9 1    
    17    8   74 1    
    18    8   75 1    
    19    9   10 ar   
    20    9   14 ar   
    21   10   11 ar   
    22   10   76 1    
    23   11   12 ar   
    24   11   48 1    
    25   12   13 ar   
    26   12   77 1    
    27   13   14 ar   
    28   13   15 1    
    29   14   78 1    
    30   15   16 1    
    31   15   79 1    
    32   15   80 1    
    33   16   17 1    
    34   17   18 1    
    35   17   81 1    
    36   17   82 1    
    37   18   19 1    
    38   18   22 1    
    39   18   83 1    
    40   19   20 am   BACKBONE|DICT|INTERRES
    41   19   21 2    
    42   20   84 1    
    43   20   85 1    
    44   22   23 am   BACKBONE|DICT|INTERRES
    45   22   86 1    
    46   23   24 2    
    47   23   25 1    
    48   25   26 1    
    49   25   27 1    
    50   25   87 1    
    51   26   88 1    
    52   26   89 1    
    53   26   90 1    
    54   27   28 am   BACKBONE|DICT|INTERRES
    55   27   91 1    
    56   28   29 2    
    57   28   30 1    
    58   30   31 1    
    59   30   32 1    
    60   30   92 1    
    61   31   93 1    
    62   31   94 1    
    63   31   95 1    
    64   32   33 am   BACKBONE|DICT|INTERRES
    65   32   96 1    
    66   33   34 2    
    67   33   35 1    
    68   35   36 1    
    69   35   37 1    
    70   35   97 1    
    71   36   98 1    
    72   36   99 1    
    73   36  100 1    
    74   37   38 am   BACKBONE|DICT|INTERRES
    75   37  101 1    
    76   38   39 2    
    77   38   40 1    
    78   40   41 1    
    79   40   42 1    
    80   40  102 1    
    81   41  103 1    
    82   41  104 1    
    83   41  105 1    
    84   42   43 am   BACKBONE|DICT|INTERRES
    85   42  106 1    
    86   43   44 2    
    87   43   45 1    
    88   45   46 1    
    89   45   49 1    
    90   45  107 1    
    91   46   47 1    
    92   46  108 1    
    93   46  109 1    
    94   47   48 1    
    95   48  110 1    
    96   48  111 1    
    97   49   50 am   BACKBONE|DICT|INTERRES
    98   49  112 1    
    99   50   51 2    
   100   50   52 1    
   101   52   53 1    
   102   52   54 1    
   103   52  113 1    
   104   53  114 1    
   105   53  115 1    
   106   53  116 1    
   107   54   55 am   BACKBONE|DICT|INTERRES
   108   54  117 1    
   109   55   56 2    
   110   55   57 1    
   111   57   58 1    
   112   57   59 1    
   113   57  118 1    
   114   58  119 1    
   115   58  120 1    
   116   58  121 1    
   117   59   60 am   BACKBONE|DICT|INTERRES
   118   59  122 1    
   119   60   61 2    
   120   60   62 1    
   121   62   63 1    
   122   62   64 1    
   123   62  123 1    
   124   63  124 1    
   125   63  125 1    
   126   63  126 1    
   127   64   65 am   BACKBONE|DICT|INTERRES
   128   64  127 1    
   129   65   66 2    
@<TRIPOS>SUBSTRUCTURE
     1 UNK         1 GROUP             0       ****    0 ROOT    
