@<TRIPOS>MOLECULE
3R135
127   129    1
SMALL
USER_CHARGES


@<TRIPOS>ATOM
      1 CA        -78.4646   22.7300  -70.8530 C.3       0 UNK        -0.1998 
      2 C         -79.4664   23.6749  -71.4977 C.2       0 UNK         0.4909 
      3 O         -80.2093   23.2620  -72.3887 O.2       0 UNK        -0.5240 
      4 N         -79.4903   24.9427  -71.0636 N.am      1 UNK        -0.4739 
      5 CA        -80.3672   25.9922  -71.5944 C.3       1 UNK         0.0864 
      6 C6        -80.2710   27.2866  -70.7523 C.3       11 UNK        -0.0881 
      7 S7        -81.6175   28.4629  -71.1315 S.3       11 UNK        -0.2682 
      8 C8        -80.8684   30.0669  -70.6980 C.3       11 UNK         0.0289 
      9 C9        -79.6353   30.3843  -71.5336 C.ar      11 UNK        -0.0687 
     10 C10       -79.7546   30.6680  -72.8975 C.ar      11 UNK        -0.0823 
     11 C11       -78.6224   30.9551  -73.6681 C.ar      11 UNK        -0.0830 
     12 C12       -77.3626   30.9581  -73.0571 C.ar      11 UNK        -0.1021 
     13 C13       -77.2297   30.6698  -71.6957 C.ar      11 UNK        -0.0753 
     14 C14       -78.3716   30.3978  -70.9375 C.ar      11 UNK        -0.0933 
     15 C15       -75.8556   30.6606  -71.0423 C.3       11 UNK         0.0166 
     16 S16       -75.4540   29.0281  -70.3436 S.3       11 UNK        -0.2615 
     17 C17       -73.6949   29.2610  -69.9138 C.3       11 UNK        -0.0865 
     18 CA        -72.6740   28.4540  -70.7713 C.3       10 UNK         0.0862 
     19 C         -72.7320   26.9067  -70.5689 C.2       10 UNK         0.5551 
     20 N         -72.2762   26.1042  -71.5227 N.am      10 UNK        -0.7319 
     21 O         -73.1394   26.4250  -69.5142 O.2       10 UNK        -0.5018 
     22 N         -72.5429   28.9445  -72.1594 N.am      10 UNK        -0.4509 
     23 C         -73.3312   28.6779  -73.2121 C.2       10 UNK         0.4899 
     24 O         -74.3149   27.9457  -73.1733 O.2       10 UNK        -0.4839 
     25 CA        -72.9373   29.2982  -74.5613 C.3       9 UNK         0.0222 
     26 CB        -71.8810   30.4252  -74.4413 C.3       9 UNK        -0.1966 
     27 N         -72.4675   28.2090  -75.4180 N.am      9 UNK        -0.4218 
     28 C         -72.1317   28.2914  -76.7111 C.2       9 UNK         0.5020 
     29 O         -72.2485   29.3086  -77.3954 O.2       9 UNK        -0.5274 
     30 CA        -71.5134   27.0346  -77.3365 C.3       8 UNK         0.0270 
     31 CB        -70.3286   26.4963  -76.5049 C.3       8 UNK        -0.1976 
     32 N         -72.5189   25.9938  -77.5452 N.am      8 UNK        -0.4313 
     33 C         -72.3929   24.9898  -78.4234 C.2       8 UNK         0.5041 
     34 O         -71.4121   24.8372  -79.1541 O.2       8 UNK        -0.5577 
     35 CA        -73.5496   23.9804  -78.5137 C.3       7 UNK         0.0284 
     36 CB        -73.4970   22.9788  -77.3485 C.3       7 UNK        -0.1958 
     37 N         -74.8634   24.6237  -78.5656 N.am      7 UNK        -0.4454 
     38 C         -75.3167   25.3302  -79.6115 C.2       7 UNK         0.5089 
     39 O         -74.6928   25.4773  -80.6631 O.2       7 UNK        -0.5125 
     40 CA        -76.7010   25.9862  -79.4672 C.3       6 UNK         0.0408 
     41 CB        -77.8105   24.9902  -79.8389 C.3       6 UNK        -0.1791 
     42 N         -76.9469   26.5165  -78.1253 N.am      6 UNK        -0.4762 
     43 C         -76.2779   27.5406  -77.5738 C.2       6 UNK         0.5007 
     44 O         -75.4189   28.1921  -78.1673 O.2       6 UNK        -0.5032 
     45 CA        -76.5956   27.8605  -76.0981 C.3       5 UNK         0.0783 
     46 C46       -77.8759   28.7220  -75.9642 C.3       11 UNK        -0.0857 
     47 S47       -77.5348   30.4925  -76.2287 S.3       11 UNK        -0.2512 
     48 C48       -78.7818   31.2800  -75.1520 C.3       11 UNK         0.0225 
     49 N         -76.6686   26.6524  -75.2735 N.am      5 UNK        -0.4615 
     50 C         -75.6744   25.7694  -75.1048 C.2       4 UNK         0.5053 
     51 O         -74.5594   25.8755  -75.6161 O.2       4 UNK        -0.5105 
     52 CA        -76.0040   24.5195  -74.2763 C.3       4 UNK         0.0263 
     53 CB        -75.9126   24.8139  -72.7705 C.3       4 UNK        -0.1981 
     54 N         -77.3263   23.9877  -74.6148 N.am      4 UNK        -0.4224 
     55 C         -77.6250   23.4221  -75.7942 C.2       3 UNK         0.4895 
     56 O         -76.7994   23.2146  -76.6832 O.2       3 UNK        -0.5091 
     57 CA        -79.1012   23.0761  -76.0447 C.3       3 UNK         0.0250 
     58 CB        -79.4567   21.7138  -75.4289 C.3       3 UNK        -0.1996 
     59 N         -80.0077   24.1112  -75.5392 N.am      3 UNK        -0.4254 
     60 C         -80.1129   25.3357  -76.0794 C.2       2 UNK         0.5004 
     61 O         -79.4898   25.6939  -77.0772 O.2       2 UNK        -0.5226 
     62 CA        -81.0322   26.3513  -75.3780 C.3       2 UNK         0.0269 
     63 CB        -82.4449   26.3029  -75.9800 C.3       2 UNK        -0.1926 
     64 N         -81.1153   26.1794  -73.9254 N.am      2 UNK        -0.4687 
     65 C         -80.0720   26.2484  -73.0872 C.2       1 UNK         0.5165 
     66 O         -78.9150   26.4650  -73.4534 O.2       1 UNK        -0.5079 
     67 H67       -78.9880   21.9650  -70.2804 H         1 UNK         0.0900 
     68 H68       -77.8702   22.2332  -71.6194 H         1 UNK         0.0900 
     69 H69       -77.7842   23.2534  -70.1814 H         1 UNK         0.0900 
     70 H70       -78.8397   25.2345  -70.3485 H         1 UNK         0.2959 
     71 H71       -81.3872   25.6110  -71.5063 H         1 UNK         0.1079 
     72 H72       -79.2962   27.7556  -70.8940 H         1 UNK         0.0837 
     73 H73       -80.3394   27.0487  -69.6896 H         1 UNK         0.0837 
     74 H74       -81.6106   30.8529  -70.8442 H         1 UNK         0.0685 
     75 H75       -80.6281   30.0686  -69.6336 H         1 UNK         0.0685 
     76 H76       -80.7343   30.6607  -73.3558 H         1 UNK         0.1434 
     77 H77       -76.4825   31.1795  -73.6449 H         1 UNK         0.1329 
     78 H78       -78.2695   30.1779  -69.8836 H         1 UNK         0.1335 
     79 H79       -75.0866   30.9354  -71.7662 H         1 UNK         0.0680 
     80 H80       -75.8260   31.4111  -70.2512 H         1 UNK         0.0680 
     81 H81       -73.4477   30.3221  -69.9649 H         1 UNK         0.1032 
     82 H82       -73.5783   28.9994  -68.8607 H         1 UNK         0.1032 
     83 H83       -71.7025   28.6998  -70.3408 H         1 UNK         0.0461 
     84 H84       -71.9185   26.4874  -72.3808 H         1 UNK         0.3453 
     85 H85       -72.2936   25.1074  -71.3788 H         1 UNK         0.3453 
     86 H86       -71.7398   29.5338  -72.3237 H         1 UNK         0.2984 
     87 H87       -73.8433   29.7184  -75.0014 H         1 UNK         0.0554 
     88 H88       -70.9074   30.0460  -74.1287 H         1 UNK         0.0847 
     89 H89       -72.1940   31.1878  -73.7265 H         1 UNK         0.0847 
     90 H90       -71.7389   30.9395  -75.3915 H         1 UNK         0.0847 
     91 H91       -72.4338   27.3014  -74.9728 H         1 UNK         0.3141 
     92 H92       -71.1266   27.3357  -78.3128 H         1 UNK         0.0743 
     93 H93       -70.6568   26.0420  -75.5697 H         1 UNK         0.0784 
     94 H94       -69.7687   25.7420  -77.0578 H         1 UNK         0.0784 
     95 H95       -69.6282   27.2950  -76.2567 H         1 UNK         0.0784 
     96 H96       -73.3570   26.0417  -76.9634 H         1 UNK         0.3213 
     97 H97       -73.4211   23.4164  -79.4402 H         1 UNK         0.0855 
     98 H98       -73.6308   23.4681  -76.3841 H         1 UNK         0.0814 
     99 H99       -72.5355   22.4644  -77.3213 H         1 UNK         0.0814 
    100 H100      -74.2698   22.2162  -77.4463 H         1 UNK         0.0814 
    101 H101      -75.4655   24.5065  -77.7581 H         1 UNK         0.3105 
    102 H102      -76.7476   26.8218  -80.1685 H         1 UNK         0.0547 
    103 H103      -77.6582   24.5913  -80.8426 H         1 UNK         0.0837 
    104 H104      -77.8403   24.1441  -79.1514 H         1 UNK         0.0837 
    105 H105      -78.7912   25.4660  -79.8246 H         1 UNK         0.0837 
    106 H106      -77.6977   26.0800  -77.5946 H         1 UNK         0.3020 
    107 H107      -75.7499   28.4279  -75.7043 H         1 UNK         0.1245 
    108 H108      -78.2915   28.6065  -74.9627 H         1 UNK         0.0781 
    109 H109      -78.6609   28.3976  -76.6498 H         1 UNK         0.0781 
    110 H110      -79.7721   30.9883  -75.5055 H         1 UNK         0.0836 
    111 H111      -78.7171   32.3615  -75.2778 H         1 UNK         0.0836 
    112 H112      -77.5291   26.5109  -74.7512 H         1 UNK         0.3022 
    113 H113      -75.2602   23.7565  -74.5148 H         1 UNK         0.0747 
    114 H114      -76.0485   23.9096  -72.1789 H         1 UNK         0.0793 
    115 H115      -74.9327   25.2207  -72.5166 H         1 UNK         0.0793 
    116 H116      -76.6530   25.5467  -72.4495 H         1 UNK         0.0793 
    117 H117      -78.0783   24.1810  -73.9687 H         1 UNK         0.3047 
    118 H118      -79.2439   23.0038  -77.1254 H         1 UNK         0.0822 
    119 H119      -80.4926   21.4433  -75.6339 H         1 UNK         0.0807 
    120 H120      -79.3148   21.7046  -74.3481 H         1 UNK         0.0807 
    121 H121      -78.8280   20.9252  -75.8447 H         1 UNK         0.0807 
    122 H122      -80.5228   23.9015  -74.6935 H         1 UNK         0.2946 
    123 H123      -80.6166   27.3435  -75.5644 H         1 UNK         0.1144 
    124 H124      -83.0807   27.0855  -75.5654 H         1 UNK         0.0793 
    125 H125      -82.9296   25.3428  -75.7982 H         1 UNK         0.0793 
    126 H126      -82.4135   26.4528  -77.0603 H         1 UNK         0.0793 
    127 H127      -82.0325   25.9920  -73.5461 H         1 UNK         0.2896 
@<TRIPOS>BOND
     1    1    2 1    
     2    1   67 1    
     3    1   68 1    
     4    1   69 1    
     5    2    3 2    
     6    2    4 am   BACKBONE|DICT|INTERRES
     7    4    5 1    
     8    4   70 1    
     9    5    6 1    
    10    5   65 1    
    11    5   71 1    
    12    6    7 1    
    13    6   72 1    
    14    6   73 1    
    15    7    8 1    
    16    8    9 1    
    17    8   74 1    
    18    8   75 1    
    19    9   10 ar   
    20    9   14 ar   
    21   10   11 ar   
    22   10   76 1    
    23   11   12 ar   
    24   11   48 1    
    25   12   13 ar   
    26   12   77 1    
    27   13   14 ar   
    28   13   15 1    
    29   14   78 1    
    30   15   16 1    
    31   15   79 1    
    32   15   80 1    
    33   16   17 1    
    34   17   18 1    
    35   17   81 1    
    36   17   82 1    
    37   18   19 1    
    38   18   22 1    
    39   18   83 1    
    40   19   20 am   BACKBONE|DICT|INTERRES
    41   19   21 2    
    42   20   84 1    
    43   20   85 1    
    44   22   23 am   BACKBONE|DICT|INTERRES
    45   22   86 1    
    46   23   24 2    
    47   23   25 1    
    48   25   26 1    
    49   25   27 1    
    50   25   87 1    
    51   26   88 1    
    52   26   89 1    
    53   26   90 1    
    54   27   28 am   BACKBONE|DICT|INTERRES
    55   27   91 1    
    56   28   29 2    
    57   28   30 1    
    58   30   31 1    
    59   30   32 1    
    60   30   92 1    
    61   31   93 1    
    62   31   94 1    
    63   31   95 1    
    64   32   33 am   BACKBONE|DICT|INTERRES
    65   32   96 1    
    66   33   34 2    
    67   33   35 1    
    68   35   36 1    
    69   35   37 1    
    70   35   97 1    
    71   36   98 1    
    72   36   99 1    
    73   36  100 1    
    74   37   38 am   BACKBONE|DICT|INTERRES
    75   37  101 1    
    76   38   39 2    
    77   38   40 1    
    78   40   41 1    
    79   40   42 1    
    80   40  102 1    
    81   41  103 1    
    82   41  104 1    
    83   41  105 1    
    84   42   43 am   BACKBONE|DICT|INTERRES
    85   42  106 1    
    86   43   44 2    
    87   43   45 1    
    88   45   46 1    
    89   45   49 1    
    90   45  107 1    
    91   46   47 1    
    92   46  108 1    
    93   46  109 1    
    94   47   48 1    
    95   48  110 1    
    96   48  111 1    
    97   49   50 am   BACKBONE|DICT|INTERRES
    98   49  112 1    
    99   50   51 2    
   100   50   52 1    
   101   52   53 1    
   102   52   54 1    
   103   52  113 1    
   104   53  114 1    
   105   53  115 1    
   106   53  116 1    
   107   54   55 am   BACKBONE|DICT|INTERRES
   108   54  117 1    
   109   55   56 2    
   110   55   57 1    
   111   57   58 1    
   112   57   59 1    
   113   57  118 1    
   114   58  119 1    
   115   58  120 1    
   116   58  121 1    
   117   59   60 am   BACKBONE|DICT|INTERRES
   118   59  122 1    
   119   60   61 2    
   120   60   62 1    
   121   62   63 1    
   122   62   64 1    
   123   62  123 1    
   124   63  124 1    
   125   63  125 1    
   126   63  126 1    
   127   64   65 am   BACKBONE|DICT|INTERRES
   128   64  127 1    
   129   65   66 2    
@<TRIPOS>SUBSTRUCTURE
     1 UNK         1 GROUP             0       ****    0 ROOT    
