@<TRIPOS>MOLECULE
3R135
127   129    1
SMALL
USER_CHARGES


@<TRIPOS>ATOM
      1 CA        -81.7916   28.4286  -75.4865 C.3       0 UNK        -0.1998 
      2 C         -82.8892   27.9366  -74.5479 C.2       0 UNK         0.4909 
      3 O         -84.0661   28.0649  -74.8780 O.2       0 UNK        -0.5240 
      4 N         -82.5692   27.3648  -73.3776 N.am      1 UNK        -0.4739 
      5 CA        -81.2233   27.1203  -72.8320 C.3       1 UNK         0.0864 
      6 C6        -81.2501   26.9540  -71.2892 C.3       11 UNK        -0.0881 
      7 S7        -81.9959   28.3852  -70.4326 S.3       11 UNK        -0.2682 
      8 C8        -80.5691   29.1008  -69.5397 C.3       11 UNK         0.0289 
      9 C9        -79.4522   29.6377  -70.4351 C.ar      11 UNK        -0.0687 
     10 C10       -79.7243   30.2244  -71.6772 C.ar      11 UNK        -0.0823 
     11 C11       -78.6871   30.6867  -72.4918 C.ar      11 UNK        -0.0830 
     12 C12       -77.3711   30.6217  -72.0295 C.ar      11 UNK        -0.1021 
     13 C13       -77.0832   30.0513  -70.7888 C.ar      11 UNK        -0.0753 
     14 C14       -78.1250   29.5582  -69.9972 C.ar      11 UNK        -0.0933 
     15 C15       -75.6389   29.9505  -70.3313 C.3       11 UNK         0.0166 
     16 S16       -74.8497   28.4827  -71.0542 S.3       11 UNK        -0.2615 
     17 C17       -73.0827   28.9042  -70.8552 C.3       11 UNK        -0.0865 
     18 CA        -72.1419   28.0503  -71.7461 C.3       10 UNK         0.0862 
     19 C         -72.0506   26.5766  -71.2600 C.2       10 UNK         0.5551 
     20 N         -72.5150   25.5925  -72.0206 N.am      10 UNK        -0.7319 
     21 O         -71.5245   26.3211  -70.1794 O.2       10 UNK        -0.5018 
     22 N         -72.4616   28.1811  -73.1756 N.am      10 UNK        -0.4509 
     23 C         -71.8569   28.9941  -74.0461 C.2       10 UNK         0.4899 
     24 O         -70.9808   29.8041  -73.7370 O.2       10 UNK        -0.4839 
     25 CA        -72.3093   28.8582  -75.5154 C.3       9 UNK         0.0222 
     26 CB        -71.4787   29.7205  -76.4892 C.3       9 UNK        -0.1966 
     27 N         -72.3564   27.4599  -75.9690 N.am      9 UNK        -0.4218 
     28 C         -71.3458   26.5756  -75.9786 C.2       9 UNK         0.5020 
     29 O         -70.1892   26.8456  -75.6512 O.2       9 UNK        -0.5274 
     30 CA        -71.6647   25.1353  -76.4183 C.3       8 UNK         0.0270 
     31 CB        -71.8677   24.2208  -75.2020 C.3       8 UNK        -0.1976 
     32 N         -72.8231   25.0191  -77.3093 N.am      8 UNK        -0.4313 
     33 C         -72.7729   25.2857  -78.6213 C.2       8 UNK         0.5041 
     34 O         -71.7824   25.7491  -79.1885 O.2       8 UNK        -0.5577 
     35 CA        -74.0216   24.9622  -79.4479 C.3       7 UNK         0.0284 
     36 CB        -74.2187   23.4414  -79.5814 C.3       7 UNK        -0.1958 
     37 N         -75.2179   25.5671  -78.8609 N.am      7 UNK        -0.4454 
     38 C         -75.9412   26.5226  -79.4569 C.2       7 UNK         0.5089 
     39 O         -75.6642   27.0100  -80.5540 O.2       7 UNK        -0.5125 
     40 CA        -77.2065   27.0161  -78.7374 C.3       6 UNK         0.0408 
     41 CB        -78.4384   26.2375  -79.2252 C.3       6 UNK        -0.1791 
     42 N         -77.1563   26.9849  -77.2730 N.am      6 UNK        -0.4762 
     43 C         -76.3796   27.7905  -76.5320 C.2       6 UNK         0.5007 
     44 O         -75.4422   28.4458  -76.9864 O.2       6 UNK        -0.5032 
     45 CA        -76.7408   27.9134  -75.0386 C.3       5 UNK         0.0783 
     46 C46       -78.1026   28.6282  -74.8468 C.3       11 UNK        -0.0857 
     47 S47       -77.9916   30.4225  -75.1991 S.3       11 UNK        -0.2512 
     48 C48       -78.9915   31.2142  -73.8875 C.3       11 UNK         0.0225 
     49 N         -76.7154   26.6009  -74.3971 N.am      5 UNK        -0.4615 
     50 C         -75.5922   25.9733  -74.0276 C.2       4 UNK         0.5053 
     51 O         -74.4703   26.4751  -74.0773 O.2       4 UNK        -0.5105 
     52 CA        -75.7267   24.5030  -73.6056 C.3       4 UNK         0.0263 
     53 CB        -76.2262   24.3827  -72.1577 C.3       4 UNK        -0.1981 
     54 N         -76.5907   23.7492  -74.5157 N.am      4 UNK        -0.4224 
     55 C         -76.3760   23.6162  -75.8353 C.2       3 UNK         0.4895 
     56 O         -75.3764   24.0467  -76.4141 O.2       3 UNK        -0.5091 
     57 CA        -77.4710   22.9237  -76.6649 C.3       3 UNK         0.0250 
     58 CB        -77.0871   21.4623  -76.9432 C.3       3 UNK        -0.1996 
     59 N         -78.7951   22.9702  -76.0369 N.am      3 UNK        -0.4254 
     60 C         -79.5101   24.0849  -75.8251 C.2       2 UNK         0.5004 
     61 O         -79.1632   25.1994  -76.2268 O.2       2 UNK        -0.5226 
     62 CA        -80.8144   23.9226  -75.0119 C.3       2 UNK         0.0269 
     63 CB        -80.7529   22.7605  -73.9936 C.3       2 UNK        -0.1926 
     64 N         -81.2384   25.1477  -74.3198 N.am      2 UNK        -0.4687 
     65 C         -80.5151   25.9115  -73.4839 C.2       1 UNK         0.5165 
     66 O         -79.3334   25.6982  -73.2116 O.2       1 UNK        -0.5079 
     67 H67       -81.1377   29.1401  -74.9866 H         1 UNK         0.0900 
     68 H68       -82.2271   28.9365  -76.3468 H         1 UNK         0.0900 
     69 H69       -81.1968   27.5974  -75.8637 H         1 UNK         0.0900 
     70 H70       -83.3243   27.0727  -72.7730 H         1 UNK         0.2959 
     71 H71       -80.6019   27.9869  -73.0516 H         1 UNK         0.1079 
     72 H72       -81.8168   26.0632  -71.0112 H         1 UNK         0.0837 
     73 H73       -80.2404   26.7996  -70.9024 H         1 UNK         0.0837 
     74 H74       -80.9291   29.9189  -68.9148 H         1 UNK         0.0685 
     75 H75       -80.1773   28.3433  -68.8589 H         1 UNK         0.0685 
     76 H76       -80.7454   30.2978  -72.0246 H         1 UNK         0.1434 
     77 H77       -76.5638   30.9797  -72.6540 H         1 UNK         0.1329 
     78 H78       -77.8994   29.1086  -69.0398 H         1 UNK         0.1335 
     79 H79       -75.1005   30.8508  -70.6313 H         1 UNK         0.0680 
     80 H80       -75.5781   29.8981  -69.2432 H         1 UNK         0.0680 
     81 H81       -72.8112   28.8101  -69.8020 H         1 UNK         0.1032 
     82 H82       -72.9416   29.9568  -71.1043 H         1 UNK         0.1032 
     83 H83       -71.1317   28.4363  -71.5973 H         1 UNK         0.0461 
     84 H84       -72.4330   24.6435  -71.6941 H         1 UNK         0.3453 
     85 H85       -73.0114   25.7996  -72.8758 H         1 UNK         0.3453 
     86 H86       -73.1988   27.5669  -73.5175 H         1 UNK         0.2984 
     87 H87       -73.3352   29.2260  -75.5465 H         1 UNK         0.0554 
     88 H88       -71.8499   29.6316  -77.5101 H         1 UNK         0.0847 
     89 H89       -70.4264   29.4347  -76.4882 H         1 UNK         0.0847 
     90 H90       -71.5295   30.7754  -76.2172 H         1 UNK         0.0847 
     91 H91       -73.2750   27.1199  -76.2198 H         1 UNK         0.3141 
     92 H92       -70.7859   24.7689  -76.9539 H         1 UNK         0.0743 
     93 H93       -72.7636   24.4902  -74.6491 H         1 UNK         0.0784 
     94 H94       -71.9610   23.1769  -75.5015 H         1 UNK         0.0784 
     95 H95       -71.0243   24.2880  -74.5132 H         1 UNK         0.0784 
     96 H96       -73.6791   24.6316  -76.9161 H         1 UNK         0.3213 
     97 H97       -73.8467   25.3533  -80.4526 H         1 UNK         0.0855 
     98 H98       -74.3782   22.9585  -78.6175 H         1 UNK         0.0814 
     99 H99       -73.3437   22.9754  -80.0364 H         1 UNK         0.0814 
    100 H100      -75.0747   23.2095  -80.2152 H         1 UNK         0.0814 
    101 H101      -75.4952   25.2325  -77.9433 H         1 UNK         0.3105 
    102 H102      -77.3463   28.0599  -79.0271 H         1 UNK         0.0547 
    103 H103      -78.5363   26.2999  -80.3098 H         1 UNK         0.0837 
    104 H104      -78.3797   25.1812  -78.9650 H         1 UNK         0.0837 
    105 H105      -79.3570   26.6366  -78.7947 H         1 UNK         0.0837 
    106 H106      -77.8781   26.4325  -76.8125 H         1 UNK         0.3020 
    107 H107      -75.9724   28.5277  -74.5616 H         1 UNK         0.1245 
    108 H108      -78.4331   28.4791  -73.8205 H         1 UNK         0.0781 
    109 H109      -78.8770   28.1851  -75.4737 H         1 UNK         0.0781 
    110 H110      -80.0469   31.0850  -74.1293 H         1 UNK         0.0836 
    111 H111      -78.8058   32.2888  -73.9060 H         1 UNK         0.0836 
    112 H112      -77.6037   26.1216  -74.2913 H         1 UNK         0.3022 
    113 H113      -74.7376   24.0471  -73.6509 H         1 UNK         0.0747 
    114 H114      -76.2420   23.3438  -71.8282 H         1 UNK         0.0793 
    115 H115      -75.5709   24.9283  -71.4766 H         1 UNK         0.0793 
    116 H116      -77.2291   24.7894  -72.0336 H         1 UNK         0.0793 
    117 H117      -77.4473   23.3821  -74.1293 H         1 UNK         0.3047 
    118 H118      -77.5315   23.4467  -77.6205 H         1 UNK         0.0822 
    119 H119      -77.8103   20.9802  -77.6013 H         1 UNK         0.0807 
    120 H120      -77.0248   20.8775  -76.0246 H         1 UNK         0.0807 
    121 H121      -76.1150   21.4007  -77.4347 H         1 UNK         0.0807 
    122 H122      -79.1586   22.0944  -75.6893 H         1 UNK         0.2946 
    123 H123      -81.5944   23.6944  -75.7401 H         1 UNK         0.1144 
    124 H124      -80.6457   21.7933  -74.4855 H         1 UNK         0.0793 
    125 H125      -81.6689   22.7073  -73.4047 H         1 UNK         0.0793 
    126 H126      -79.9220   22.8762  -73.2961 H         1 UNK         0.0793 
    127 H127      -82.1941   25.4314  -74.4847 H         1 UNK         0.2896 
@<TRIPOS>BOND
     1    1    2 1    
     2    1   67 1    
     3    1   68 1    
     4    1   69 1    
     5    2    3 2    
     6    2    4 am   BACKBONE|DICT|INTERRES
     7    4    5 1    
     8    4   70 1    
     9    5    6 1    
    10    5   65 1    
    11    5   71 1    
    12    6    7 1    
    13    6   72 1    
    14    6   73 1    
    15    7    8 1    
    16    8    9 1    
    17    8   74 1    
    18    8   75 1    
    19    9   10 ar   
    20    9   14 ar   
    21   10   11 ar   
    22   10   76 1    
    23   11   12 ar   
    24   11   48 1    
    25   12   13 ar   
    26   12   77 1    
    27   13   14 ar   
    28   13   15 1    
    29   14   78 1    
    30   15   16 1    
    31   15   79 1    
    32   15   80 1    
    33   16   17 1    
    34   17   18 1    
    35   17   81 1    
    36   17   82 1    
    37   18   19 1    
    38   18   22 1    
    39   18   83 1    
    40   19   20 am   BACKBONE|DICT|INTERRES
    41   19   21 2    
    42   20   84 1    
    43   20   85 1    
    44   22   23 am   BACKBONE|DICT|INTERRES
    45   22   86 1    
    46   23   24 2    
    47   23   25 1    
    48   25   26 1    
    49   25   27 1    
    50   25   87 1    
    51   26   88 1    
    52   26   89 1    
    53   26   90 1    
    54   27   28 am   BACKBONE|DICT|INTERRES
    55   27   91 1    
    56   28   29 2    
    57   28   30 1    
    58   30   31 1    
    59   30   32 1    
    60   30   92 1    
    61   31   93 1    
    62   31   94 1    
    63   31   95 1    
    64   32   33 am   BACKBONE|DICT|INTERRES
    65   32   96 1    
    66   33   34 2    
    67   33   35 1    
    68   35   36 1    
    69   35   37 1    
    70   35   97 1    
    71   36   98 1    
    72   36   99 1    
    73   36  100 1    
    74   37   38 am   BACKBONE|DICT|INTERRES
    75   37  101 1    
    76   38   39 2    
    77   38   40 1    
    78   40   41 1    
    79   40   42 1    
    80   40  102 1    
    81   41  103 1    
    82   41  104 1    
    83   41  105 1    
    84   42   43 am   BACKBONE|DICT|INTERRES
    85   42  106 1    
    86   43   44 2    
    87   43   45 1    
    88   45   46 1    
    89   45   49 1    
    90   45  107 1    
    91   46   47 1    
    92   46  108 1    
    93   46  109 1    
    94   47   48 1    
    95   48  110 1    
    96   48  111 1    
    97   49   50 am   BACKBONE|DICT|INTERRES
    98   49  112 1    
    99   50   51 2    
   100   50   52 1    
   101   52   53 1    
   102   52   54 1    
   103   52  113 1    
   104   53  114 1    
   105   53  115 1    
   106   53  116 1    
   107   54   55 am   BACKBONE|DICT|INTERRES
   108   54  117 1    
   109   55   56 2    
   110   55   57 1    
   111   57   58 1    
   112   57   59 1    
   113   57  118 1    
   114   58  119 1    
   115   58  120 1    
   116   58  121 1    
   117   59   60 am   BACKBONE|DICT|INTERRES
   118   59  122 1    
   119   60   61 2    
   120   60   62 1    
   121   62   63 1    
   122   62   64 1    
   123   62  123 1    
   124   63  124 1    
   125   63  125 1    
   126   63  126 1    
   127   64   65 am   BACKBONE|DICT|INTERRES
   128   64  127 1    
   129   65   66 2    
@<TRIPOS>SUBSTRUCTURE
     1 UNK         1 GROUP             0       ****    0 ROOT    
