@<TRIPOS>MOLECULE
3R135
127   129    1
SMALL
USER_CHARGES


@<TRIPOS>ATOM
      1 CA        -83.1361   30.8504  -74.7715 C.3       0 UNK        -0.1998 
      2 C         -81.9415   30.1819  -75.4349 C.2       0 UNK         0.4909 
      3 O         -81.7293   30.3575  -76.6349 O.2       0 UNK        -0.5240 
      4 N         -81.1595   29.4173  -74.6620 N.am      1 UNK        -0.4739 
      5 CA        -79.9861   28.6697  -75.1326 C.3       1 UNK         0.0864 
      6 C6        -79.0701   28.2441  -73.9580 C.3       11 UNK        -0.0881 
      7 S7        -79.9230   27.2415  -72.6849 S.3       11 UNK        -0.2682 
      8 C8        -79.7706   28.2802  -71.1941 C.3       11 UNK         0.0289 
      9 C9        -78.3172   28.4825  -70.7912 C.ar      11 UNK        -0.0687 
     10 C10       -77.5181   27.3812  -70.4726 C.ar      11 UNK        -0.0823 
     11 C11       -76.1586   27.5453  -70.1871 C.ar      11 UNK        -0.0830 
     12 C12       -75.6227   28.8360  -70.1511 C.ar      11 UNK        -0.1021 
     13 C13       -76.4120   29.9484  -70.4545 C.ar      11 UNK        -0.0753 
     14 C14       -77.7616   29.7649  -70.7696 C.ar      11 UNK        -0.0933 
     15 C15       -75.8043   31.3451  -70.4587 C.3       11 UNK         0.0166 
     16 S16       -75.8461   32.1094  -72.1140 S.3       11 UNK        -0.2615 
     17 C17       -74.4341   31.3260  -72.9765 C.3       11 UNK        -0.0865 
     18 CA        -74.7536   29.9471  -73.6334 C.3       10 UNK         0.0862 
     19 C         -75.7086   30.0091  -74.8611 C.2       10 UNK         0.5551 
     20 N         -75.7634   28.9774  -75.6917 N.am      10 UNK        -0.7319 
     21 O         -76.4147   30.9882  -75.0828 O.2       10 UNK        -0.5018 
     22 N         -73.5403   29.1563  -73.9132 N.am      10 UNK        -0.4509 
     23 C         -72.7473   28.6119  -72.9818 C.2       10 UNK         0.4899 
     24 O         -72.9141   28.7782  -71.7752 O.2       10 UNK        -0.4839 
     25 CA        -71.5640   27.7412  -73.4349 C.3       9 UNK         0.0222 
     26 CB        -71.3680   26.5227  -72.5068 C.3       9 UNK        -0.1966 
     27 N         -71.6543   27.2796  -74.8243 N.am      9 UNK        -0.4218 
     28 C         -70.5782   27.0318  -75.5854 C.2       9 UNK         0.5020 
     29 O         -69.4261   27.3236  -75.2588 O.2       9 UNK        -0.5274 
     30 CA        -70.7956   26.2857  -76.9108 C.3       8 UNK         0.0270 
     31 CB        -70.8559   24.7692  -76.6621 C.3       8 UNK        -0.1976 
     32 N         -71.9891   26.6930  -77.6457 N.am      8 UNK        -0.4313 
     33 C         -72.1739   27.8670  -78.2566 C.2       8 UNK         0.5041 
     34 O         -71.3662   28.7954  -78.2086 O.2       8 UNK        -0.5577 
     35 CA        -73.4677   28.0403  -79.0779 C.3       7 UNK         0.0284 
     36 CB        -73.2682   27.5482  -80.5248 C.3       7 UNK        -0.1958 
     37 N         -74.6739   27.4516  -78.4746 N.am      7 UNK        -0.4454 
     38 C         -74.9549   26.1663  -78.2157 C.2       7 UNK         0.5089 
     39 O         -74.2179   25.2203  -78.5017 O.2       7 UNK        -0.5125 
     40 CA        -76.2612   25.9039  -77.4479 C.3       6 UNK         0.0408 
     41 CB        -77.2010   25.0349  -78.2995 C.3       6 UNK        -0.1791 
     42 N         -76.0585   25.2706  -76.1357 N.am      6 UNK        -0.4762 
     43 C         -75.1420   25.5951  -75.2040 C.2       6 UNK         0.5007 
     44 O         -74.3370   26.5199  -75.3366 O.2       6 UNK        -0.5032 
     45 CA        -75.1305   24.8110  -73.8705 C.3       5 UNK         0.0783 
     46 C46       -75.5290   25.7574  -72.7102 C.3       11 UNK        -0.0857 
     47 S47       -75.5461   24.9397  -71.0772 S.3       11 UNK        -0.2512 
     48 C48       -75.2473   26.3436  -69.9428 C.3       11 UNK         0.0225 
     49 N         -75.9741   23.6143  -73.8988 N.am      5 UNK        -0.4615 
     50 C         -75.7297   22.4887  -74.5804 C.2       4 UNK         0.5053 
     51 O         -74.6878   22.2833  -75.2025 O.2       4 UNK        -0.5105 
     52 CA        -76.8436   21.4180  -74.5924 C.3       4 UNK         0.0263 
     53 CB        -76.4409   20.2189  -73.7184 C.3       4 UNK        -0.1981 
     54 N         -78.1724   21.8915  -74.1696 N.am      4 UNK        -0.4224 
     55 C         -78.8654   22.8882  -74.7407 C.2       3 UNK         0.4895 
     56 O         -78.4463   23.5279  -75.7060 O.2       3 UNK        -0.5091 
     57 CA        -80.2053   23.2620  -74.0768 C.3       3 UNK         0.0250 
     58 CB        -80.0097   23.6022  -72.5865 C.3       3 UNK        -0.1996 
     59 N         -80.8453   24.4051  -74.7352 N.am      3 UNK        -0.4254 
     60 C         -81.4964   24.3588  -75.9067 C.2       2 UNK         0.5004 
     61 O         -81.6974   23.3167  -76.5329 O.2       2 UNK        -0.5226 
     62 CA        -82.0452   25.6844  -76.4720 C.3       2 UNK         0.0269 
     63 CB        -83.5823   25.7006  -76.4144 C.3       2 UNK        -0.1926 
     64 N         -81.5394   26.8723  -75.7773 N.am      2 UNK        -0.4687 
     65 C         -80.3589   27.4613  -76.0197 C.2       1 UNK         0.5165 
     66 O         -79.5787   27.0912  -76.8958 O.2       1 UNK        -0.5079 
     67 H67       -84.0604   30.5245  -75.2479 H         1 UNK         0.0900 
     68 H68       -83.0638   31.9330  -74.8725 H         1 UNK         0.0900 
     69 H69       -83.1995   30.6126  -73.7098 H         1 UNK         0.0900 
     70 H70       -81.3788   29.3046  -73.6824 H         1 UNK         0.2959 
     71 H71       -79.4050   29.3431  -75.7675 H         1 UNK         0.1079 
     72 H72       -78.2108   27.6786  -74.3248 H         1 UNK         0.0837 
     73 H73       -78.6473   29.1379  -73.4975 H         1 UNK         0.0837 
     74 H74       -80.2665   29.2358  -71.3710 H         1 UNK         0.0685 
     75 H75       -80.3044   27.8008  -70.3726 H         1 UNK         0.0685 
     76 H76       -77.9481   26.3894  -70.4989 H         1 UNK         0.1434 
     77 H77       -74.5777   28.9752  -69.9130 H         1 UNK         0.1329 
     78 H78       -78.3707   30.6227  -71.0201 H         1 UNK         0.1335 
     79 H79       -76.3708   31.9737  -69.7703 H         1 UNK         0.0680 
     80 H80       -74.7783   31.3321  -70.0876 H         1 UNK         0.0680 
     81 H81       -73.6245   31.2346  -72.2526 H         1 UNK         0.1032 
     82 H82       -74.0645   32.0193  -73.7336 H         1 UNK         0.1032 
     83 H83       -75.3191   29.3648  -72.9065 H         1 UNK         0.0461 
     84 H84       -75.2338   28.1288  -75.5176 H         1 UNK         0.3453 
     85 H85       -76.4169   29.0352  -76.4531 H         1 UNK         0.3453 
     86 H86       -73.3377   29.0019  -74.8905 H         1 UNK         0.2984 
     87 H87       -70.6894   28.3866  -73.3320 H         1 UNK         0.0554 
     88 H88       -70.4901   25.9414  -72.7884 H         1 UNK         0.0847 
     89 H89       -72.2321   25.8583  -72.5315 H         1 UNK         0.0847 
     90 H90       -71.2232   26.8302  -71.4704 H         1 UNK         0.0847 
     91 H91       -72.5761   26.9935  -75.1519 H         1 UNK         0.3141 
     92 H92       -69.9317   26.4903  -77.5469 H         1 UNK         0.0743 
     93 H93       -71.7278   24.4920  -76.0674 H         1 UNK         0.0784 
     94 H94       -70.9017   24.2153  -77.6000 H         1 UNK         0.0784 
     95 H95       -69.9706   24.4243  -76.1258 H         1 UNK         0.0784 
     96 H96       -72.7160   25.9923  -77.7781 H         1 UNK         0.3213 
     97 H97       -73.6587   29.1140  -79.1229 H         1 UNK         0.0855 
     98 H98       -72.4306   28.0629  -80.9976 H         1 UNK         0.0814 
     99 H99       -74.1513   27.7398  -81.1342 H         1 UNK         0.0814 
    100 H100      -73.0557   26.4797  -80.5685 H         1 UNK         0.0814 
    101 H101      -75.3492   28.1357  -78.1674 H         1 UNK         0.3105 
    102 H102      -76.7639   26.8551  -77.2693 H         1 UNK         0.0547 
    103 H103      -77.3253   25.4521  -79.2996 H         1 UNK         0.0837 
    104 H104      -76.8190   24.0196  -78.4121 H         1 UNK         0.0837 
    105 H105      -78.1949   24.9727  -77.8576 H         1 UNK         0.0837 
    106 H106      -76.7147   24.5275  -75.9147 H         1 UNK         0.3020 
    107 H107      -74.1002   24.4858  -73.7107 H         1 UNK         0.1245 
    108 H108      -76.5201   26.1806  -72.8863 H         1 UNK         0.0781 
    109 H109      -74.8433   26.6042  -72.6584 H         1 UNK         0.0781 
    110 H110      -74.2007   26.6380  -70.0406 H         1 UNK         0.0836 
    111 H111      -75.3788   26.0031  -68.9153 H         1 UNK         0.0836 
    112 H112      -76.8442   23.6807  -73.3934 H         1 UNK         0.3022 
    113 H113      -76.9369   21.0736  -75.6244 H         1 UNK         0.0747 
    114 H114      -77.1648   19.4075  -73.7967 H         1 UNK         0.0793 
    115 H115      -75.4745   19.8167  -74.0263 H         1 UNK         0.0793 
    116 H116      -76.3573   20.4969  -72.6669 H         1 UNK         0.0793 
    117 H117      -78.5789   21.4181  -73.3753 H         1 UNK         0.3047 
    118 H118      -80.8716   22.4003  -74.1556 H         1 UNK         0.0822 
    119 H119      -80.9319   23.9733  -72.1385 H         1 UNK         0.0807 
    120 H120      -79.2406   24.3619  -72.4417 H         1 UNK         0.0807 
    121 H121      -79.7116   22.7254  -72.0110 H         1 UNK         0.0807 
    122 H122      -80.7009   25.3097  -74.3094 H         1 UNK         0.2946 
    123 H123      -81.7411   25.7333  -77.5203 H         1 UNK         0.1144 
    124 H124      -83.9866   26.6055  -76.8685 H         1 UNK         0.0793 
    125 H125      -83.9487   25.6455  -75.3886 H         1 UNK         0.0793 
    126 H126      -84.0034   24.8529  -76.9568 H         1 UNK         0.0793 
    127 H127      -82.1148   27.2514  -75.0390 H         1 UNK         0.2896 
@<TRIPOS>BOND
     1    1    2 1    
     2    1   67 1    
     3    1   68 1    
     4    1   69 1    
     5    2    3 2    
     6    2    4 am   BACKBONE|DICT|INTERRES
     7    4    5 1    
     8    4   70 1    
     9    5    6 1    
    10    5   65 1    
    11    5   71 1    
    12    6    7 1    
    13    6   72 1    
    14    6   73 1    
    15    7    8 1    
    16    8    9 1    
    17    8   74 1    
    18    8   75 1    
    19    9   10 ar   
    20    9   14 ar   
    21   10   11 ar   
    22   10   76 1    
    23   11   12 ar   
    24   11   48 1    
    25   12   13 ar   
    26   12   77 1    
    27   13   14 ar   
    28   13   15 1    
    29   14   78 1    
    30   15   16 1    
    31   15   79 1    
    32   15   80 1    
    33   16   17 1    
    34   17   18 1    
    35   17   81 1    
    36   17   82 1    
    37   18   19 1    
    38   18   22 1    
    39   18   83 1    
    40   19   20 am   BACKBONE|DICT|INTERRES
    41   19   21 2    
    42   20   84 1    
    43   20   85 1    
    44   22   23 am   BACKBONE|DICT|INTERRES
    45   22   86 1    
    46   23   24 2    
    47   23   25 1    
    48   25   26 1    
    49   25   27 1    
    50   25   87 1    
    51   26   88 1    
    52   26   89 1    
    53   26   90 1    
    54   27   28 am   BACKBONE|DICT|INTERRES
    55   27   91 1    
    56   28   29 2    
    57   28   30 1    
    58   30   31 1    
    59   30   32 1    
    60   30   92 1    
    61   31   93 1    
    62   31   94 1    
    63   31   95 1    
    64   32   33 am   BACKBONE|DICT|INTERRES
    65   32   96 1    
    66   33   34 2    
    67   33   35 1    
    68   35   36 1    
    69   35   37 1    
    70   35   97 1    
    71   36   98 1    
    72   36   99 1    
    73   36  100 1    
    74   37   38 am   BACKBONE|DICT|INTERRES
    75   37  101 1    
    76   38   39 2    
    77   38   40 1    
    78   40   41 1    
    79   40   42 1    
    80   40  102 1    
    81   41  103 1    
    82   41  104 1    
    83   41  105 1    
    84   42   43 am   BACKBONE|DICT|INTERRES
    85   42  106 1    
    86   43   44 2    
    87   43   45 1    
    88   45   46 1    
    89   45   49 1    
    90   45  107 1    
    91   46   47 1    
    92   46  108 1    
    93   46  109 1    
    94   47   48 1    
    95   48  110 1    
    96   48  111 1    
    97   49   50 am   BACKBONE|DICT|INTERRES
    98   49  112 1    
    99   50   51 2    
   100   50   52 1    
   101   52   53 1    
   102   52   54 1    
   103   52  113 1    
   104   53  114 1    
   105   53  115 1    
   106   53  116 1    
   107   54   55 am   BACKBONE|DICT|INTERRES
   108   54  117 1    
   109   55   56 2    
   110   55   57 1    
   111   57   58 1    
   112   57   59 1    
   113   57  118 1    
   114   58  119 1    
   115   58  120 1    
   116   58  121 1    
   117   59   60 am   BACKBONE|DICT|INTERRES
   118   59  122 1    
   119   60   61 2    
   120   60   62 1    
   121   62   63 1    
   122   62   64 1    
   123   62  123 1    
   124   63  124 1    
   125   63  125 1    
   126   63  126 1    
   127   64   65 am   BACKBONE|DICT|INTERRES
   128   64  127 1    
   129   65   66 2    
@<TRIPOS>SUBSTRUCTURE
     1 UNK         1 GROUP             0       ****    0 ROOT    
