@<TRIPOS>MOLECULE
3R135
127   129    1
SMALL
USER_CHARGES


@<TRIPOS>ATOM
      1 CA        -81.8386   25.8620  -69.9199 C.3       0 UNK        -0.1998 
      2 C         -82.3413   26.5701  -71.1689 C.2       0 UNK         0.4909 
      3 O         -83.5261   26.4810  -71.4909 O.2       0 UNK        -0.5240 
      4 N         -81.4450   27.2661  -71.8794 N.am      1 UNK        -0.4739 
      5 CA        -81.7384   27.9890  -73.1250 C.3       1 UNK         0.0864 
      6 C6        -80.7475   29.1611  -73.3324 C.3       11 UNK        -0.0881 
      7 S7        -81.0848   30.5809  -72.2249 S.3       11 UNK        -0.2682 
      8 C8        -80.2185   30.1858  -70.6627 C.3       11 UNK         0.0289 
      9 C9        -78.7969   29.6861  -70.8746 C.ar      11 UNK        -0.0687 
     10 C10       -78.4317   28.4110  -70.4331 C.ar      11 UNK        -0.0823 
     11 C11       -77.1686   27.8940  -70.7311 C.ar      11 UNK        -0.0830 
     12 C12       -76.2509   28.6801  -71.4339 C.ar      11 UNK        -0.1021 
     13 C13       -76.5929   29.9691  -71.8490 C.ar      11 UNK        -0.0753 
     14 C14       -77.8633   30.4724  -71.5569 C.ar      11 UNK        -0.0933 
     15 C15       -75.6121   30.7950  -72.6627 C.3       11 UNK         0.0166 
     16 S16       -75.9565   30.6152  -74.4383 S.3       11 UNK        -0.2615 
     17 C17       -74.5943   31.5831  -75.1697 C.3       11 UNK        -0.0865 
     18 CA        -73.5979   30.7059  -75.9863 C.3       10 UNK         0.0862 
     19 C         -72.5786   31.5564  -76.8058 C.2       10 UNK         0.5551 
     20 N         -71.3696   31.0702  -77.0604 N.am      10 UNK        -0.7319 
     21 O         -72.8921   32.6611  -77.2436 O.2       10 UNK        -0.5018 
     22 N         -72.9879   29.6087  -75.2041 N.am      10 UNK        -0.4509 
     23 C         -72.1999   29.7729  -74.1327 C.2       10 UNK         0.4899 
     24 O         -71.9190   30.8770  -73.6646 O.2       10 UNK        -0.4839 
     25 CA        -71.5938   28.5318  -73.4582 C.3       9 UNK         0.0222 
     26 CB        -71.9722   28.4643  -71.9668 C.3       9 UNK        -0.1966 
     27 N         -71.9296   27.2499  -74.0919 N.am      9 UNK        -0.4218 
     28 C         -71.0414   26.2547  -74.2404 C.2       9 UNK         0.5020 
     29 O         -69.8321   26.3761  -74.0351 O.2       9 UNK        -0.5274 
     30 CA        -71.5810   24.8694  -74.6288 C.3       8 UNK         0.0270 
     31 CB        -72.2782   24.2079  -73.4278 C.3       8 UNK        -0.1976 
     32 N         -72.4794   24.8870  -75.7818 N.am      8 UNK        -0.4313 
     33 C         -72.0896   25.1086  -77.0446 C.2       8 UNK         0.5041 
     34 O         -70.9239   25.3313  -77.3749 O.2       8 UNK        -0.5577 
     35 CA        -73.1815   25.0698  -78.1291 C.3       7 UNK         0.0284 
     36 CB        -73.4594   23.6236  -78.5695 C.3       7 UNK        -0.1958 
     37 N         -74.4311   25.7052  -77.7057 N.am      7 UNK        -0.4454 
     38 C         -74.5528   27.0100  -77.4283 C.2       7 UNK         0.5089 
     39 O         -73.6383   27.8223  -77.5589 O.2       7 UNK        -0.5125 
     40 CA        -75.9008   27.4820  -76.8575 C.3       6 UNK         0.0408 
     41 CB        -76.9372   27.6833  -77.9725 C.3       6 UNK        -0.1791 
     42 N         -76.4332   26.5810  -75.8342 N.am      6 UNK        -0.4762 
     43 C         -75.8181   26.2902  -74.6777 C.2       6 UNK         0.5007 
     44 O         -74.7381   26.7721  -74.3282 O.2       6 UNK        -0.5032 
     45 CA        -76.5059   25.2391  -73.7848 C.3       5 UNK         0.0783 
     46 C46       -77.7090   25.8542  -73.0240 C.3       11 UNK        -0.0857 
     47 S47       -77.8480   25.2535  -71.3075 S.3       11 UNK        -0.2512 
     48 C48       -76.8264   26.4530  -70.3801 C.3       11 UNK         0.0225 
     49 N         -76.9075   24.0665  -74.5683 N.am      5 UNK        -0.4615 
     50 C         -76.0721   23.2398  -75.2105 C.2       4 UNK         0.5053 
     51 O         -74.8473   23.3285  -75.1597 O.2       4 UNK        -0.5105 
     52 CA        -76.7165   22.1631  -76.0997 C.3       4 UNK         0.0263 
     53 CB        -77.1316   20.9447  -75.2601 C.3       4 UNK        -0.1981 
     54 N         -77.8751   22.6688  -76.8418 N.am      4 UNK        -0.4224 
     55 C         -77.8137   23.6128  -77.7934 C.2       3 UNK         0.4895 
     56 O         -76.7622   24.1043  -78.2006 O.2       3 UNK        -0.5091 
     57 CA        -79.1526   24.1334  -78.3479 C.3       3 UNK         0.0250 
     58 CB        -79.6175   23.2727  -79.5330 C.3       3 UNK        -0.1996 
     59 N         -80.2137   24.1960  -77.3353 N.am      3 UNK        -0.4254 
     60 C         -80.1638   24.9565  -76.2324 C.2       2 UNK         0.5004 
     61 O         -79.2294   25.7193  -75.9753 O.2       2 UNK        -0.5226 
     62 CA        -81.3061   24.7564  -75.2209 C.3       2 UNK         0.0269 
     63 CB        -81.1667   23.3927  -74.5201 C.3       2 UNK        -0.1926 
     64 N         -81.3369   25.7939  -74.1885 N.am      2 UNK        -0.4687 
     65 C         -81.7731   27.0502  -74.3559 C.2       1 UNK         0.5165 
     66 O         -82.2189   27.4728  -75.4241 O.2       1 UNK        -0.5079 
     67 H67       -82.1592   24.8205  -69.9243 H         1 UNK         0.0900 
     68 H68       -82.2447   26.3398  -69.0289 H         1 UNK         0.0900 
     69 H69       -80.7512   25.8766  -69.8508 H         1 UNK         0.0900 
     70 H70       -80.4838   27.3039  -71.5742 H         1 UNK         0.2959 
     71 H71       -82.7438   28.4103  -73.0514 H         1 UNK         0.1079 
     72 H72       -79.7133   28.8269  -73.2391 H         1 UNK         0.0837 
     73 H73       -80.8302   29.5533  -74.3481 H         1 UNK         0.0837 
     74 H74       -80.1904   31.0815  -70.0408 H         1 UNK         0.0685 
     75 H75       -80.8108   29.4533  -70.1126 H         1 UNK         0.0685 
     76 H76       -79.1433   27.7964  -69.9000 H         1 UNK         0.1434 
     77 H77       -75.2863   28.2726  -71.6987 H         1 UNK         0.1329 
     78 H78       -78.1442   31.4566  -71.9067 H         1 UNK         0.1335 
     79 H79       -75.6828   31.8466  -72.3807 H         1 UNK         0.0680 
     80 H80       -74.5885   30.4822  -72.4531 H         1 UNK         0.0680 
     81 H81       -74.0732   32.1487  -74.3963 H         1 UNK         0.1032 
     82 H82       -75.0557   32.3310  -75.8168 H         1 UNK         0.1032 
     83 H83       -74.1919   30.2154  -76.7557 H         1 UNK         0.0461 
     84 H84       -70.7174   31.6184  -77.5985 H         1 UNK         0.3453 
     85 H85       -71.1120   30.1542  -76.7302 H         1 UNK         0.3453 
     86 H86       -73.1422   28.6817  -75.5781 H         1 UNK         0.2984 
     87 H87       -70.5161   28.6965  -73.5144 H         1 UNK         0.0554 
     88 H88       -71.4204   27.6762  -71.4543 H         1 UNK         0.0847 
     89 H89       -73.0345   28.2668  -71.8340 H         1 UNK         0.0847 
     90 H90       -71.7453   29.3994  -71.4530 H         1 UNK         0.0847 
     91 H91       -72.9190   27.0591  -74.2510 H         1 UNK         0.3141 
     92 H92       -70.7223   24.2475  -74.8913 H         1 UNK         0.0743 
     93 H93       -73.1853   24.7403  -73.1410 H         1 UNK         0.0784 
     94 H94       -72.5519   23.1761  -73.6489 H         1 UNK         0.0784 
     95 H95       -71.6221   24.1875  -72.5566 H         1 UNK         0.0784 
     96 H96       -73.4477   24.6318  -75.6077 H         1 UNK         0.3213 
     97 H97       -72.8064   25.6215  -78.9938 H         1 UNK         0.0855 
     98 H98       -73.8594   23.0221  -77.7528 H         1 UNK         0.0814 
     99 H99       -72.5458   23.1386  -78.9158 H         1 UNK         0.0814 
    100 H100      -74.1760   23.5901  -79.3904 H         1 UNK         0.0814 
    101 H101      -75.2550   25.1113  -77.6414 H         1 UNK         0.3105 
    102 H102      -75.7370   28.4467  -76.3780 H         1 UNK         0.0547 
    103 H103      -76.5860   28.4160  -78.7000 H         1 UNK         0.0837 
    104 H104      -77.1365   26.7588  -78.5132 H         1 UNK         0.0837 
    105 H105      -77.8835   28.0491  -77.5732 H         1 UNK         0.0837 
    106 H106      -77.3460   26.1682  -76.0119 H         1 UNK         0.3020 
    107 H107      -75.7521   24.9127  -73.0650 H         1 UNK         0.1245 
    108 H108      -78.6449   25.6020  -73.5172 H         1 UNK         0.0781 
    109 H109      -77.6964   26.9438  -73.0390 H         1 UNK         0.0781 
    110 H110      -75.7736   26.2461  -70.5793 H         1 UNK         0.0836 
    111 H111      -76.9723   26.2954  -69.3106 H         1 UNK         0.0836 
    112 H112      -77.8985   23.9458  -74.7064 H         1 UNK         0.3022 
    113 H113      -75.9670   21.8396  -76.8253 H         1 UNK         0.0747 
    114 H114      -77.5165   20.1421  -75.8894 H         1 UNK         0.0793 
    115 H115      -76.2789   20.5425  -74.7111 H         1 UNK         0.0793 
    116 H116      -77.9005   21.1968  -74.5285 H         1 UNK         0.0793 
    117 H117      -78.7804   22.3052  -76.5839 H         1 UNK         0.3047 
    118 H118      -78.9837   25.1492  -78.7107 H         1 UNK         0.0822 
    119 H119      -80.5162   23.6835  -79.9936 H         1 UNK         0.0807 
    120 H120      -79.8327   22.2470  -79.2309 H         1 UNK         0.0807 
    121 H121      -78.8502   23.2300  -80.3075 H         1 UNK         0.0807 
    122 H122      -81.0117   23.5934  -77.4791 H         1 UNK         0.2946 
    123 H123      -82.2522   24.7839  -75.7668 H         1 UNK         0.1144 
    124 H124      -81.1958   22.5697  -75.2351 H         1 UNK         0.0793 
    125 H125      -81.9820   23.2271  -73.8152 H         1 UNK         0.0793 
    126 H126      -80.2293   23.3137  -73.9676 H         1 UNK         0.0793 
    127 H127      -80.9873   25.5387  -73.2777 H         1 UNK         0.2896 
@<TRIPOS>BOND
     1    1    2 1    
     2    1   67 1    
     3    1   68 1    
     4    1   69 1    
     5    2    3 2    
     6    2    4 am   BACKBONE|DICT|INTERRES
     7    4    5 1    
     8    4   70 1    
     9    5    6 1    
    10    5   65 1    
    11    5   71 1    
    12    6    7 1    
    13    6   72 1    
    14    6   73 1    
    15    7    8 1    
    16    8    9 1    
    17    8   74 1    
    18    8   75 1    
    19    9   10 ar   
    20    9   14 ar   
    21   10   11 ar   
    22   10   76 1    
    23   11   12 ar   
    24   11   48 1    
    25   12   13 ar   
    26   12   77 1    
    27   13   14 ar   
    28   13   15 1    
    29   14   78 1    
    30   15   16 1    
    31   15   79 1    
    32   15   80 1    
    33   16   17 1    
    34   17   18 1    
    35   17   81 1    
    36   17   82 1    
    37   18   19 1    
    38   18   22 1    
    39   18   83 1    
    40   19   20 am   BACKBONE|DICT|INTERRES
    41   19   21 2    
    42   20   84 1    
    43   20   85 1    
    44   22   23 am   BACKBONE|DICT|INTERRES
    45   22   86 1    
    46   23   24 2    
    47   23   25 1    
    48   25   26 1    
    49   25   27 1    
    50   25   87 1    
    51   26   88 1    
    52   26   89 1    
    53   26   90 1    
    54   27   28 am   BACKBONE|DICT|INTERRES
    55   27   91 1    
    56   28   29 2    
    57   28   30 1    
    58   30   31 1    
    59   30   32 1    
    60   30   92 1    
    61   31   93 1    
    62   31   94 1    
    63   31   95 1    
    64   32   33 am   BACKBONE|DICT|INTERRES
    65   32   96 1    
    66   33   34 2    
    67   33   35 1    
    68   35   36 1    
    69   35   37 1    
    70   35   97 1    
    71   36   98 1    
    72   36   99 1    
    73   36  100 1    
    74   37   38 am   BACKBONE|DICT|INTERRES
    75   37  101 1    
    76   38   39 2    
    77   38   40 1    
    78   40   41 1    
    79   40   42 1    
    80   40  102 1    
    81   41  103 1    
    82   41  104 1    
    83   41  105 1    
    84   42   43 am   BACKBONE|DICT|INTERRES
    85   42  106 1    
    86   43   44 2    
    87   43   45 1    
    88   45   46 1    
    89   45   49 1    
    90   45  107 1    
    91   46   47 1    
    92   46  108 1    
    93   46  109 1    
    94   47   48 1    
    95   48  110 1    
    96   48  111 1    
    97   49   50 am   BACKBONE|DICT|INTERRES
    98   49  112 1    
    99   50   51 2    
   100   50   52 1    
   101   52   53 1    
   102   52   54 1    
   103   52  113 1    
   104   53  114 1    
   105   53  115 1    
   106   53  116 1    
   107   54   55 am   BACKBONE|DICT|INTERRES
   108   54  117 1    
   109   55   56 2    
   110   55   57 1    
   111   57   58 1    
   112   57   59 1    
   113   57  118 1    
   114   58  119 1    
   115   58  120 1    
   116   58  121 1    
   117   59   60 am   BACKBONE|DICT|INTERRES
   118   59  122 1    
   119   60   61 2    
   120   60   62 1    
   121   62   63 1    
   122   62   64 1    
   123   62  123 1    
   124   63  124 1    
   125   63  125 1    
   126   63  126 1    
   127   64   65 am   BACKBONE|DICT|INTERRES
   128   64  127 1    
   129   65   66 2    
@<TRIPOS>SUBSTRUCTURE
     1 UNK         1 GROUP             0       ****    0 ROOT    
