@<TRIPOS>MOLECULE
3R135
127   129    1
SMALL
USER_CHARGES


@<TRIPOS>ATOM
      1 CA        -84.5056   26.6595  -72.4780 C.3       0 UNK        -0.1998 
      2 C         -84.3193   27.3842  -73.8012 C.2       0 UNK         0.4909 
      3 O         -85.2262   27.3850  -74.6326 O.2       0 UNK        -0.5240 
      4 N         -83.1463   27.9964  -74.0051 N.am      1 UNK        -0.4739 
      5 CA        -82.7756   28.7230  -75.2274 C.3       1 UNK         0.0864 
      6 C6        -81.7767   29.8696  -74.9172 C.3       11 UNK        -0.0881 
      7 S7        -80.1468   29.3129  -74.3059 S.3       11 UNK        -0.2682 
      8 C8        -80.2350   29.7133  -72.5372 C.3       11 UNK         0.0289 
      9 C9        -78.9336   29.3504  -71.8374 C.ar      11 UNK        -0.0687 
     10 C10       -78.7346   28.0601  -71.3359 C.ar      11 UNK        -0.0823 
     11 C11       -77.5461   27.7299  -70.6756 C.ar      11 UNK        -0.0830 
     12 C12       -76.5541   28.7016  -70.5157 C.ar      11 UNK        -0.1021 
     13 C13       -76.7386   29.9921  -71.0205 C.ar      11 UNK        -0.0753 
     14 C14       -77.9287   30.3097  -71.6822 C.ar      11 UNK        -0.0933 
     15 C15       -75.6645   31.0530  -70.8355 C.3       11 UNK         0.0166 
     16 S16       -74.4799   31.0564  -72.2153 S.3       11 UNK        -0.2615 
     17 C17       -73.4227   29.6325  -71.7816 C.3       11 UNK        -0.0865 
     18 CA        -72.0999   29.6202  -72.5928 C.3       10 UNK         0.0862 
     19 C         -71.0837   28.5690  -72.0554 C.2       10 UNK         0.5551 
     20 N         -70.3508   27.8528  -72.9007 N.am      10 UNK        -0.7319 
     21 O         -70.9405   28.4086  -70.8459 O.2       10 UNK        -0.5018 
     22 N         -72.3671   29.4643  -74.0291 N.am      10 UNK        -0.4509 
     23 C         -71.8308   30.1993  -75.0079 C.2       10 UNK         0.4899 
     24 O         -71.0802   31.1584  -74.8184 O.2       10 UNK        -0.4839 
     25 CA        -72.1861   29.7647  -76.4436 C.3       9 UNK         0.0222 
     26 CB        -71.3356   30.4754  -77.5178 C.3       9 UNK        -0.1966 
     27 N         -72.1403   28.3080  -76.6296 N.am      9 UNK        -0.4218 
     28 C         -71.0903   27.4953  -76.4227 C.2       9 UNK         0.5020 
     29 O         -69.9969   27.8931  -76.0175 O.2       9 UNK        -0.5274 
     30 CA        -71.2708   25.9822  -76.6640 C.3       8 UNK         0.0270 
     31 CB        -70.9355   25.1900  -75.3880 C.3       8 UNK        -0.1976 
     32 N         -72.6110   25.6023  -77.1155 N.am      8 UNK        -0.4313 
     33 C         -73.0929   25.7723  -78.3534 C.2       8 UNK         0.5041 
     34 O         -72.4288   26.2090  -79.2937 O.2       8 UNK        -0.5577 
     35 CA        -74.5841   25.4515  -78.5618 C.3       7 UNK         0.0284 
     36 CB        -74.7846   23.9584  -78.8652 C.3       7 UNK        -0.1958 
     37 N         -75.4191   25.8371  -77.4188 N.am      7 UNK        -0.4454 
     38 C         -75.5699   27.0907  -76.9641 C.2       7 UNK         0.5089 
     39 O         -75.0364   28.0750  -77.4746 O.2       7 UNK        -0.5125 
     40 CA        -76.4133   27.2638  -75.6916 C.3       6 UNK         0.0408 
     41 CB        -77.9129   27.1561  -76.0100 C.3       6 UNK        -0.1791 
     42 N         -76.0471   26.2797  -74.6724 N.am      6 UNK        -0.4762 
     43 C         -74.8841   26.2781  -74.0046 C.2       6 UNK         0.5007 
     44 O         -74.0106   27.1334  -74.1524 O.2       6 UNK        -0.5032 
     45 CA        -74.6255   25.0935  -73.0509 C.3       5 UNK         0.0783 
     46 C46       -75.1359   25.3778  -71.6134 C.3       11 UNK        -0.0857 
     47 S47       -76.9343   25.1231  -71.4006 S.3       11 UNK        -0.2512 
     48 C48       -77.3531   26.3319  -70.1078 C.3       11 UNK         0.0225 
     49 N         -75.1363   23.8238  -73.5807 N.am      5 UNK        -0.4615 
     50 C         -74.7025   23.2197  -74.6944 C.2       4 UNK         0.5053 
     51 O         -73.7691   23.6365  -75.3766 O.2       4 UNK        -0.5105 
     52 CA        -75.4808   21.9745  -75.1558 C.3       4 UNK         0.0263 
     53 CB        -74.9676   20.7184  -74.4346 C.3       4 UNK        -0.1981 
     54 N         -76.9311   22.0988  -74.9648 N.am      4 UNK        -0.4224 
     55 C         -77.6905   23.0370  -75.5466 C.2       3 UNK         0.4895 
     56 O         -77.2524   23.8732  -76.3426 O.2       3 UNK        -0.5091 
     57 CA        -79.1665   23.0868  -75.1316 C.3       3 UNK         0.0250 
     58 CB        -79.2904   23.5406  -73.6603 C.3       3 UNK        -0.1996 
     59 N         -79.8523   24.0266  -76.0169 N.am      3 UNK        -0.4254 
     60 C         -81.1557   24.3167  -76.0219 C.2       2 UNK         0.5004 
     61 O         -81.9924   23.7610  -75.3076 O.2       2 UNK        -0.5226 
     62 CA        -81.6049   25.4556  -76.9414 C.3       2 UNK         0.0269 
     63 CB        -82.6510   24.9842  -77.9684 C.3       2 UNK        -0.1926 
     64 N         -82.1613   26.4882  -76.0759 N.am      2 UNK        -0.4687 
     65 C         -82.2756   27.7908  -76.3595 C.2       1 UNK         0.5165 
     66 O         -81.9911   28.2698  -77.4585 O.2       1 UNK        -0.5079 
     67 H67       -85.3611   27.0694  -71.9438 H         1 UNK         0.0900 
     68 H68       -84.6890   25.5996  -72.6528 H         1 UNK         0.0900 
     69 H69       -83.6304   26.7513  -71.8364 H         1 UNK         0.0900 
     70 H70       -82.4290   27.9527  -73.2967 H         1 UNK         0.2959 
     71 H71       -83.6783   29.1944  -75.6221 H         1 UNK         0.1079 
     72 H72       -82.2191   30.5567  -74.1942 H         1 UNK         0.0837 
     73 H73       -81.6085   30.4690  -75.8138 H         1 UNK         0.0837 
     74 H74       -81.0680   29.1795  -72.0786 H         1 UNK         0.0685 
     75 H75       -80.4437   30.7773  -72.4160 H         1 UNK         0.0685 
     76 H76       -79.5053   27.3113  -71.4583 H         1 UNK         0.1434 
     77 H77       -75.6390   28.4562  -69.9948 H         1 UNK         0.1329 
     78 H78       -78.0746   31.3072  -72.0740 H         1 UNK         0.1335 
     79 H79       -76.1278   32.0389  -70.7730 H         1 UNK         0.0680 
     80 H80       -75.1394   30.9075  -69.8902 H         1 UNK         0.0680 
     81 H81       -73.9818   28.7109  -71.9469 H         1 UNK         0.1032 
     82 H82       -73.2149   29.6807  -70.7112 H         1 UNK         0.1032 
     83 H83       -71.6145   30.5824  -72.4215 H         1 UNK         0.0461 
     84 H84       -70.4081   28.0084  -73.8987 H         1 UNK         0.3453 
     85 H85       -69.6914   27.1862  -72.5330 H         1 UNK         0.3453 
     86 H86       -72.9561   28.6692  -74.2682 H         1 UNK         0.2984 
     87 H87       -73.2252   30.0581  -76.5995 H         1 UNK         0.0554 
     88 H88       -71.4569   31.5578  -77.4601 H         1 UNK         0.0847 
     89 H89       -71.6305   30.1706  -78.5219 H         1 UNK         0.0847 
     90 H90       -70.2729   30.2606  -77.4004 H         1 UNK         0.0847 
     91 H91       -73.0143   27.8925  -76.9330 H         1 UNK         0.3141 
     92 H92       -70.5558   25.6956  -77.4378 H         1 UNK         0.0743 
     93 H93       -69.9155   25.3874  -75.0559 H         1 UNK         0.0784 
     94 H94       -71.6029   25.4531  -74.5667 H         1 UNK         0.0784 
     95 H95       -71.0157   24.1157  -75.5548 H         1 UNK         0.0784 
     96 H96       -73.2043   25.1445  -76.4272 H         1 UNK         0.3213 
     97 H97       -74.9270   26.0250  -79.4256 H         1 UNK         0.0855 
     98 H98       -74.4528   23.3302  -78.0384 H         1 UNK         0.0814 
     99 H99       -74.2176   23.6610  -79.7482 H         1 UNK         0.0814 
    100 H100      -75.8327   23.7293  -79.0591 H         1 UNK         0.0814 
    101 H101      -75.9298   25.0919  -76.9502 H         1 UNK         0.3105 
    102 H102      -76.2233   28.2573  -75.2789 H         1 UNK         0.0547 
    103 H103      -78.1408   26.3006  -76.6432 H         1 UNK         0.0837 
    104 H104      -78.2572   28.0445  -76.5405 H         1 UNK         0.0837 
    105 H105      -78.5084   27.0655  -75.1021 H         1 UNK         0.0837 
    106 H106      -76.6903   25.5176  -74.5180 H         1 UNK         0.3020 
    107 H107      -73.5390   24.9947  -72.9926 H         1 UNK         0.1245 
    108 H108      -74.8610   26.3855  -71.2972 H         1 UNK         0.0781 
    109 H109      -74.6317   24.7073  -70.9159 H         1 UNK         0.0781 
    110 H110      -76.5847   26.3243  -69.3331 H         1 UNK         0.0836 
    111 H111      -78.2754   26.0140  -69.6195 H         1 UNK         0.0836 
    112 H112      -75.9146   23.4225  -73.0783 H         1 UNK         0.3022 
    113 H113      -75.2983   21.8510  -76.2251 H         1 UNK         0.0747 
    114 H114      -75.4469   19.8172  -74.8176 H         1 UNK         0.0793 
    115 H115      -73.8930   20.5980  -74.5803 H         1 UNK         0.0793 
    116 H116      -75.1475   20.7647  -73.3598 H         1 UNK         0.0793 
    117 H117      -77.3634   21.4453  -74.3272 H         1 UNK         0.3047 
    118 H118      -79.6003   22.0933  -75.2592 H         1 UNK         0.0822 
    119 H119      -80.3179   23.4783  -73.3037 H         1 UNK         0.0807 
    120 H120      -78.9603   24.5719  -73.5326 H         1 UNK         0.0807 
    121 H121      -78.6945   22.9191  -72.9914 H         1 UNK         0.0807 
    122 H122      -79.2209   24.4930  -76.6565 H         1 UNK         0.2946 
    123 H123      -80.7400   25.8603  -77.4723 H         1 UNK         0.1144 
    124 H124      -82.9495   25.7951  -78.6328 H         1 UNK         0.0793 
    125 H125      -83.5499   24.6027  -77.4823 H         1 UNK         0.0793 
    126 H126      -82.2508   24.1844  -78.5925 H         1 UNK         0.0793 
    127 H127      -82.4183   26.1744  -75.1494 H         1 UNK         0.2896 
@<TRIPOS>BOND
     1    1    2 1    
     2    1   67 1    
     3    1   68 1    
     4    1   69 1    
     5    2    3 2    
     6    2    4 am   BACKBONE|DICT|INTERRES
     7    4    5 1    
     8    4   70 1    
     9    5    6 1    
    10    5   65 1    
    11    5   71 1    
    12    6    7 1    
    13    6   72 1    
    14    6   73 1    
    15    7    8 1    
    16    8    9 1    
    17    8   74 1    
    18    8   75 1    
    19    9   10 ar   
    20    9   14 ar   
    21   10   11 ar   
    22   10   76 1    
    23   11   12 ar   
    24   11   48 1    
    25   12   13 ar   
    26   12   77 1    
    27   13   14 ar   
    28   13   15 1    
    29   14   78 1    
    30   15   16 1    
    31   15   79 1    
    32   15   80 1    
    33   16   17 1    
    34   17   18 1    
    35   17   81 1    
    36   17   82 1    
    37   18   19 1    
    38   18   22 1    
    39   18   83 1    
    40   19   20 am   BACKBONE|DICT|INTERRES
    41   19   21 2    
    42   20   84 1    
    43   20   85 1    
    44   22   23 am   BACKBONE|DICT|INTERRES
    45   22   86 1    
    46   23   24 2    
    47   23   25 1    
    48   25   26 1    
    49   25   27 1    
    50   25   87 1    
    51   26   88 1    
    52   26   89 1    
    53   26   90 1    
    54   27   28 am   BACKBONE|DICT|INTERRES
    55   27   91 1    
    56   28   29 2    
    57   28   30 1    
    58   30   31 1    
    59   30   32 1    
    60   30   92 1    
    61   31   93 1    
    62   31   94 1    
    63   31   95 1    
    64   32   33 am   BACKBONE|DICT|INTERRES
    65   32   96 1    
    66   33   34 2    
    67   33   35 1    
    68   35   36 1    
    69   35   37 1    
    70   35   97 1    
    71   36   98 1    
    72   36   99 1    
    73   36  100 1    
    74   37   38 am   BACKBONE|DICT|INTERRES
    75   37  101 1    
    76   38   39 2    
    77   38   40 1    
    78   40   41 1    
    79   40   42 1    
    80   40  102 1    
    81   41  103 1    
    82   41  104 1    
    83   41  105 1    
    84   42   43 am   BACKBONE|DICT|INTERRES
    85   42  106 1    
    86   43   44 2    
    87   43   45 1    
    88   45   46 1    
    89   45   49 1    
    90   45  107 1    
    91   46   47 1    
    92   46  108 1    
    93   46  109 1    
    94   47   48 1    
    95   48  110 1    
    96   48  111 1    
    97   49   50 am   BACKBONE|DICT|INTERRES
    98   49  112 1    
    99   50   51 2    
   100   50   52 1    
   101   52   53 1    
   102   52   54 1    
   103   52  113 1    
   104   53  114 1    
   105   53  115 1    
   106   53  116 1    
   107   54   55 am   BACKBONE|DICT|INTERRES
   108   54  117 1    
   109   55   56 2    
   110   55   57 1    
   111   57   58 1    
   112   57   59 1    
   113   57  118 1    
   114   58  119 1    
   115   58  120 1    
   116   58  121 1    
   117   59   60 am   BACKBONE|DICT|INTERRES
   118   59  122 1    
   119   60   61 2    
   120   60   62 1    
   121   62   63 1    
   122   62   64 1    
   123   62  123 1    
   124   63  124 1    
   125   63  125 1    
   126   63  126 1    
   127   64   65 am   BACKBONE|DICT|INTERRES
   128   64  127 1    
   129   65   66 2    
@<TRIPOS>SUBSTRUCTURE
     1 UNK         1 GROUP             0       ****    0 ROOT    
