@<TRIPOS>MOLECULE
3R135
127   129    1
SMALL
USER_CHARGES


@<TRIPOS>ATOM
      1 CA        -81.6251   28.9290  -76.3881 C.3       0 UNK        -0.1998 
      2 C         -81.1228   27.9493  -75.3385 C.2       0 UNK         0.4909 
      3 O         -80.1455   27.2361  -75.5769 O.2       0 UNK        -0.5240 
      4 N         -81.7869   27.9040  -74.1762 N.am      1 UNK        -0.4739 
      5 CA        -81.5266   26.9180  -73.1228 C.3       1 UNK         0.0864 
      6 C6        -82.1067   27.3648  -71.7581 C.3       11 UNK        -0.0881 
      7 S7        -81.0486   26.8284  -70.3702 S.3       11 UNK        -0.2682 
      8 C8        -80.1866   28.3731  -69.9265 C.3       11 UNK         0.0289 
      9 C9        -79.0603   28.7091  -70.8961 C.ar      11 UNK        -0.0687 
     10 C10       -79.2956   29.5311  -72.0023 C.ar      11 UNK        -0.0823 
     11 C11       -78.2637   29.8657  -72.8865 C.ar      11 UNK        -0.0830 
     12 C12       -76.9767   29.3625  -72.6447 C.ar      11 UNK        -0.1021 
     13 C13       -76.7275   28.5359  -71.5437 C.ar      11 UNK        -0.0753 
     14 C14       -77.7717   28.2182  -70.6705 C.ar      11 UNK        -0.0933 
     15 C15       -75.3427   27.9446  -71.3225 C.3       11 UNK         0.0166 
     16 S16       -74.2615   29.0491  -70.3666 S.3       11 UNK        -0.2615 
     17 C17       -72.7305   28.0462  -70.3182 C.3       11 UNK        -0.0865 
     18 CA        -71.6635   28.5014  -71.3535 C.3       10 UNK         0.0862 
     19 C         -70.3217   27.7289  -71.1991 C.2       10 UNK         0.5551 
     20 N         -69.6680   27.3163  -72.2788 N.am      10 UNK        -0.7319 
     21 O         -69.8547   27.5125  -70.0835 O.2       10 UNK        -0.5018 
     22 N         -72.1955   28.4575  -72.7259 N.am      10 UNK        -0.4509 
     23 C         -72.3840   29.5221  -73.5111 C.2       10 UNK         0.4899 
     24 O         -72.0414   30.6699  -73.2204 O.2       10 UNK        -0.4839 
     25 CA        -73.1122   29.2420  -74.8361 C.3       9 UNK         0.0222 
     26 CB        -73.2798   30.5034  -75.7105 C.3       9 UNK        -0.1966 
     27 N         -72.5304   28.1372  -75.6123 N.am      9 UNK        -0.4218 
     28 C         -71.2783   28.0683  -76.0904 C.2       9 UNK         0.5020 
     29 O         -70.4230   28.9280  -75.8737 O.2       9 UNK        -0.5274 
     30 CA        -70.8922   26.8796  -76.9949 C.3       8 UNK         0.0270 
     31 CB        -69.6419   26.1458  -76.4633 C.3       8 UNK        -0.1976 
     32 N         -71.9668   25.9298  -77.3195 N.am      8 UNK        -0.4313 
     33 C         -72.5695   25.0418  -76.5191 C.2       8 UNK         0.5041 
     34 O         -72.3630   24.9663  -75.3070 O.2       8 UNK        -0.5577 
     35 CA        -73.5647   24.0796  -77.2038 C.3       7 UNK         0.0284 
     36 CB        -74.1182   23.0176  -76.2370 C.3       7 UNK        -0.1958 
     37 N         -74.6879   24.7814  -77.8322 N.am      7 UNK        -0.4454 
     38 C         -74.6375   25.4766  -78.9774 C.2       7 UNK         0.5089 
     39 O         -73.6177   25.5916  -79.6589 O.2       7 UNK        -0.5125 
     40 CA        -75.9216   26.2098  -79.4009 C.3       6 UNK         0.0408 
     41 CB        -76.9104   25.2577  -80.0930 C.3       6 UNK        -0.1791 
     42 N         -76.5529   26.8584  -78.2479 N.am      6 UNK        -0.4762 
     43 C         -76.1153   28.0142  -77.7233 C.2       6 UNK         0.5007 
     44 O         -75.2514   28.7097  -78.2574 O.2       6 UNK        -0.5032 
     45 CA        -76.6941   28.4638  -76.3649 C.3       5 UNK         0.0783 
     46 C46       -77.6983   29.6371  -76.5007 C.3       11 UNK        -0.0857 
     47 S47       -77.3152   30.9941  -75.3411 S.3       11 UNK        -0.2512 
     48 C48       -78.5918   30.8130  -74.0450 C.3       11 UNK         0.0225 
     49 N         -77.2337   27.3397  -75.5918 N.am      5 UNK        -0.4615 
     50 C         -76.4621   26.4521  -74.9475 C.2       4 UNK         0.5053 
     51 O         -75.2379   26.5477  -74.8726 O.2       4 UNK        -0.5105 
     52 CA        -77.1528   25.2287  -74.3249 C.3       4 UNK         0.0263 
     53 CB        -77.5155   25.4652  -72.8554 C.3       4 UNK        -0.1981 
     54 N         -78.3556   24.8208  -75.0409 N.am      4 UNK        -0.4224 
     55 C         -78.3835   24.2308  -76.2410 C.2       3 UNK         0.4895 
     56 O         -77.3771   24.0680  -76.9313 O.2       3 UNK        -0.5091 
     57 CA        -79.7650   23.7606  -76.7494 C.3       3 UNK         0.0250 
     58 CB        -79.6696   22.4942  -77.6251 C.3       3 UNK        -0.1996 
     59 N         -80.7512   23.5960  -75.6670 N.am      3 UNK        -0.4254 
     60 C         -80.6863   22.7592  -74.6165 C.2       2 UNK         0.5004 
     61 O         -79.8592   21.8531  -74.5075 O.2       2 UNK        -0.5226 
     62 CA        -81.6409   23.0740  -73.4456 C.3       2 UNK         0.0269 
     63 CB        -81.4434   22.1304  -72.2442 C.3       2 UNK        -0.1926 
     64 N         -81.4441   24.4595  -72.9965 N.am      2 UNK        -0.4687 
     65 C         -82.0326   25.5237  -73.5558 C.2       1 UNK         0.5165 
     66 O         -82.9059   25.4226  -74.4222 O.2       1 UNK        -0.5079 
     67 H67       -81.5353   28.4926  -77.3825 H         1 UNK         0.0900 
     68 H68       -82.6726   29.1834  -76.2280 H         1 UNK         0.0900 
     69 H69       -81.0436   29.8492  -76.3650 H         1 UNK         0.0900 
     70 H70       -82.6050   28.4824  -74.0493 H         1 UNK         0.2959 
     71 H71       -80.4404   26.8567  -73.0309 H         1 UNK         0.1079 
     72 H72       -83.1192   26.9855  -71.6044 H         1 UNK         0.0837 
     73 H73       -82.2010   28.4506  -71.7160 H         1 UNK         0.0837 
     74 H74       -79.7783   28.2626  -68.9207 H         1 UNK         0.0685 
     75 H75       -80.9009   29.1957  -69.8677 H         1 UNK         0.0685 
     76 H76       -80.2890   29.9238  -72.1702 H         1 UNK         0.1434 
     77 H77       -76.1580   29.6082  -73.3045 H         1 UNK         0.1329 
     78 H78       -77.5836   27.5785  -69.8191 H         1 UNK         0.1335 
     79 H79       -75.4236   26.9944  -70.7929 H         1 UNK         0.0680 
     80 H80       -74.8823   27.7216  -72.2856 H         1 UNK         0.0680 
     81 H81       -72.9726   26.9912  -70.4578 H         1 UNK         0.1032 
     82 H82       -72.3291   28.1251  -69.3061 H         1 UNK         0.1032 
     83 H83       -71.4045   29.5311  -71.1016 H         1 UNK         0.0461 
     84 H84       -70.0206   27.5292  -73.1983 H         1 UNK         0.3453 
     85 H85       -68.7966   26.8218  -72.1707 H         1 UNK         0.3453 
     86 H86       -72.4705   27.5465  -73.0658 H         1 UNK         0.2984 
     87 H87       -74.1039   28.9145  -74.5340 H         1 UNK         0.0554 
     88 H88       -73.8291   31.2788  -75.1749 H         1 UNK         0.0847 
     89 H89       -73.8354   30.2888  -76.6223 H         1 UNK         0.0847 
     90 H90       -72.3172   30.9268  -75.9989 H         1 UNK         0.0847 
     91 H91       -73.1415   27.3448  -75.7713 H         1 UNK         0.3141 
     92 H92       -70.6166   27.3277  -77.9508 H         1 UNK         0.0743 
     93 H93       -68.7965   26.8287  -76.3695 H         1 UNK         0.0784 
     94 H94       -69.8133   25.7097  -75.4788 H         1 UNK         0.0784 
     95 H95       -69.3346   25.3456  -77.1365 H         1 UNK         0.0784 
     96 H96       -72.2759   25.9342  -78.2893 H         1 UNK         0.3213 
     97 H97       -73.0125   23.5524  -77.9849 H         1 UNK         0.0855 
     98 H98       -74.6473   23.4742  -75.4018 H         1 UNK         0.0814 
     99 H99       -73.3120   22.4136  -75.8188 H         1 UNK         0.0814 
    100 H100      -74.8069   22.3385  -76.7402 H         1 UNK         0.0814 
    101 H101      -75.5852   24.7025  -77.3619 H         1 UNK         0.3105 
    102 H102      -75.6454   26.9761  -80.1287 H         1 UNK         0.0547 
    103 H103      -77.1972   24.4213  -79.4570 H         1 UNK         0.0837 
    104 H104      -77.8198   25.7788  -80.3922 H         1 UNK         0.0837 
    105 H105      -76.4686   24.8354  -80.9963 H         1 UNK         0.0837 
    106 H106      -77.2408   26.3214  -77.7382 H         1 UNK         0.3020 
    107 H107      -75.8264   28.8381  -75.8271 H         1 UNK         0.1245 
    108 H108      -78.7236   29.3016  -76.3683 H         1 UNK         0.0781 
    109 H109      -77.6722   30.0785  -77.4993 H         1 UNK         0.0781 
    110 H110      -79.5336   30.5182  -74.5077 H         1 UNK         0.0836 
    111 H111      -78.7653   31.8023  -73.6196 H         1 UNK         0.0836 
    112 H112      -78.2444   27.2186  -75.5936 H         1 UNK         0.3022 
    113 H113      -76.4489   24.3966  -74.3617 H         1 UNK         0.0747 
    114 H114      -78.0247   24.6033  -72.4238 H         1 UNK         0.0793 
    115 H115      -78.1608   26.3348  -72.7368 H         1 UNK         0.0793 
    116 H116      -76.6170   25.6301  -72.2638 H         1 UNK         0.0793 
    117 H117      -79.2374   24.9810  -74.5805 H         1 UNK         0.3047 
    118 H118      -80.1398   24.5700  -77.3778 H         1 UNK         0.0822 
    119 H119      -79.0552   22.6754  -78.5079 H         1 UNK         0.0807 
    120 H120      -80.6521   22.1781  -77.9749 H         1 UNK         0.0807 
    121 H121      -79.2196   21.6603  -77.0858 H         1 UNK         0.0807 
    122 H122      -81.4833   24.2977  -75.6420 H         1 UNK         0.2946 
    123 H123      -82.6621   22.9395  -73.8110 H         1 UNK         0.1144 
    124 H124      -82.1485   22.3559  -71.4439 H         1 UNK         0.0793 
    125 H125      -80.4356   22.2023  -71.8331 H         1 UNK         0.0793 
    126 H126      -81.6052   21.0910  -72.5331 H         1 UNK         0.0793 
    127 H127      -80.7604   24.6046  -72.2661 H         1 UNK         0.2896 
@<TRIPOS>BOND
     1    1    2 1    
     2    1   67 1    
     3    1   68 1    
     4    1   69 1    
     5    2    3 2    
     6    2    4 am   BACKBONE|DICT|INTERRES
     7    4    5 1    
     8    4   70 1    
     9    5    6 1    
    10    5   65 1    
    11    5   71 1    
    12    6    7 1    
    13    6   72 1    
    14    6   73 1    
    15    7    8 1    
    16    8    9 1    
    17    8   74 1    
    18    8   75 1    
    19    9   10 ar   
    20    9   14 ar   
    21   10   11 ar   
    22   10   76 1    
    23   11   12 ar   
    24   11   48 1    
    25   12   13 ar   
    26   12   77 1    
    27   13   14 ar   
    28   13   15 1    
    29   14   78 1    
    30   15   16 1    
    31   15   79 1    
    32   15   80 1    
    33   16   17 1    
    34   17   18 1    
    35   17   81 1    
    36   17   82 1    
    37   18   19 1    
    38   18   22 1    
    39   18   83 1    
    40   19   20 am   BACKBONE|DICT|INTERRES
    41   19   21 2    
    42   20   84 1    
    43   20   85 1    
    44   22   23 am   BACKBONE|DICT|INTERRES
    45   22   86 1    
    46   23   24 2    
    47   23   25 1    
    48   25   26 1    
    49   25   27 1    
    50   25   87 1    
    51   26   88 1    
    52   26   89 1    
    53   26   90 1    
    54   27   28 am   BACKBONE|DICT|INTERRES
    55   27   91 1    
    56   28   29 2    
    57   28   30 1    
    58   30   31 1    
    59   30   32 1    
    60   30   92 1    
    61   31   93 1    
    62   31   94 1    
    63   31   95 1    
    64   32   33 am   BACKBONE|DICT|INTERRES
    65   32   96 1    
    66   33   34 2    
    67   33   35 1    
    68   35   36 1    
    69   35   37 1    
    70   35   97 1    
    71   36   98 1    
    72   36   99 1    
    73   36  100 1    
    74   37   38 am   BACKBONE|DICT|INTERRES
    75   37  101 1    
    76   38   39 2    
    77   38   40 1    
    78   40   41 1    
    79   40   42 1    
    80   40  102 1    
    81   41  103 1    
    82   41  104 1    
    83   41  105 1    
    84   42   43 am   BACKBONE|DICT|INTERRES
    85   42  106 1    
    86   43   44 2    
    87   43   45 1    
    88   45   46 1    
    89   45   49 1    
    90   45  107 1    
    91   46   47 1    
    92   46  108 1    
    93   46  109 1    
    94   47   48 1    
    95   48  110 1    
    96   48  111 1    
    97   49   50 am   BACKBONE|DICT|INTERRES
    98   49  112 1    
    99   50   51 2    
   100   50   52 1    
   101   52   53 1    
   102   52   54 1    
   103   52  113 1    
   104   53  114 1    
   105   53  115 1    
   106   53  116 1    
   107   54   55 am   BACKBONE|DICT|INTERRES
   108   54  117 1    
   109   55   56 2    
   110   55   57 1    
   111   57   58 1    
   112   57   59 1    
   113   57  118 1    
   114   58  119 1    
   115   58  120 1    
   116   58  121 1    
   117   59   60 am   BACKBONE|DICT|INTERRES
   118   59  122 1    
   119   60   61 2    
   120   60   62 1    
   121   62   63 1    
   122   62   64 1    
   123   62  123 1    
   124   63  124 1    
   125   63  125 1    
   126   63  126 1    
   127   64   65 am   BACKBONE|DICT|INTERRES
   128   64  127 1    
   129   65   66 2    
@<TRIPOS>SUBSTRUCTURE
     1 UNK         1 GROUP             0       ****    0 ROOT    
