@<TRIPOS>MOLECULE
3R135
127   129    1
SMALL
USER_CHARGES


@<TRIPOS>ATOM
      1 CA        -82.5811   27.8594  -70.4860 C.3       0 UNK        -0.1998 
      2 C         -82.1728   27.2961  -71.8380 C.2       0 UNK         0.4909 
      3 O         -81.4253   26.3197  -71.8903 O.2       0 UNK        -0.5240 
      4 N         -82.6652   27.8989  -72.9298 N.am      1 UNK        -0.4739 
      5 CA        -82.4009   27.5864  -74.3465 C.3       1 UNK         0.0864 
      6 C6        -80.9075   27.7336  -74.7544 C.3       11 UNK        -0.0881 
      7 S7        -80.4576   29.4820  -75.0229 S.3       11 UNK        -0.2682 
      8 C8        -79.9135   30.0292  -73.3744 C.3       11 UNK         0.0289 
      9 C9        -78.5275   29.5145  -73.0227 C.ar      11 UNK        -0.0687 
     10 C10       -78.3678   28.4645  -72.1143 C.ar      11 UNK        -0.0823 
     11 C11       -77.0903   28.0174  -71.7631 C.ar      11 UNK        -0.0830 
     12 C12       -75.9682   28.6297  -72.3308 C.ar      11 UNK        -0.1021 
     13 C13       -76.1172   29.6721  -73.2502 C.ar      11 UNK        -0.0753 
     14 C14       -77.3990   30.1136  -73.5871 C.ar      11 UNK        -0.0933 
     15 C15       -74.9032   30.3088  -73.9059 C.3       11 UNK         0.0166 
     16 S16       -74.2727   31.7130  -72.9331 S.3       11 UNK        -0.2615 
     17 C17       -73.0089   30.9053  -71.8887 C.3       11 UNK        -0.0865 
     18 CA        -71.5720   31.1020  -72.4432 C.3       10 UNK         0.0862 
     19 C         -70.5043   30.5147  -71.4727 C.2       10 UNK         0.5551 
     20 N         -69.6639   29.5713  -71.8843 N.am      10 UNK        -0.7319 
     21 O         -70.4339   30.9316  -70.3193 O.2       10 UNK        -0.5018 
     22 N         -71.4629   30.6115  -73.8239 N.am      10 UNK        -0.4509 
     23 C         -70.5769   31.0271  -74.7349 C.2       10 UNK         0.4899 
     24 O         -69.7693   31.9375  -74.5434 O.2       10 UNK        -0.4839 
     25 CA        -70.6086   30.2857  -76.0881 C.3       9 UNK         0.0222 
     26 CB        -69.2724   30.3897  -76.8535 C.3       9 UNK        -0.1966 
     27 N         -71.0340   28.8812  -75.9756 N.am      9 UNK        -0.4218 
     28 C         -70.4490   27.9122  -75.2505 C.2       9 UNK         0.5020 
     29 O         -69.4589   28.0977  -74.5407 O.2       9 UNK        -0.5274 
     30 CA        -71.0901   26.5107  -75.2701 C.3       8 UNK         0.0270 
     31 CB        -71.5850   26.1320  -73.8632 C.3       8 UNK        -0.1976 
     32 N         -72.1939   26.3708  -76.2285 N.am      8 UNK        -0.4313 
     33 C         -72.0332   26.2616  -77.5575 C.2       8 UNK         0.5041 
     34 O         -70.9286   26.2630  -78.1023 O.2       8 UNK        -0.5577 
     35 CA        -73.2888   26.1397  -78.4425 C.3       7 UNK         0.0284 
     36 CB        -73.3459   24.7573  -79.1144 C.3       7 UNK        -0.1958 
     37 N         -74.5414   26.3819  -77.7222 N.am      7 UNK        -0.4454 
     38 C         -75.0072   27.5982  -77.3986 C.2       7 UNK         0.5089 
     39 O         -74.4282   28.6450  -77.6904 O.2       7 UNK        -0.5125 
     40 CA        -76.3158   27.6670  -76.5841 C.3       6 UNK         0.0408 
     41 CB        -77.5157   27.9108  -77.5115 C.3       6 UNK        -0.1791 
     42 N         -76.5787   26.4854  -75.7561 N.am      6 UNK        -0.4762 
     43 C         -75.7648   26.0252  -74.7944 C.2       6 UNK         0.5007 
     44 O         -74.6882   26.5513  -74.5118 O.2       6 UNK        -0.5032 
     45 CA        -76.1723   24.7067  -74.1033 C.3       5 UNK         0.0783 
     46 C46       -77.0151   24.9427  -72.8253 C.3       11 UNK        -0.0857 
     47 S47       -75.9888   25.4684  -71.4113 S.3       11 UNK        -0.2512 
     48 C48       -76.9303   26.8851  -70.7559 C.3       11 UNK         0.0225 
     49 N         -76.8328   23.7494  -74.9991 N.am      5 UNK        -0.4615 
     50 C         -76.3388   23.2548  -76.1391 C.2       4 UNK         0.5053 
     51 O         -75.2984   23.6573  -76.6574 O.2       4 UNK        -0.5105 
     52 CA        -77.1121   22.1097  -76.8199 C.3       4 UNK         0.0263 
     53 CB        -76.7155   20.7570  -76.1976 C.3       4 UNK        -0.1981 
     54 N         -78.5776   22.2414  -76.8854 N.am      4 UNK        -0.4224 
     55 C         -79.4738   22.3004  -75.8900 C.2       3 UNK         0.4895 
     56 O         -79.1897   22.3781  -74.6916 O.2       3 UNK        -0.5091 
     57 CA        -80.9447   22.2108  -76.3063 C.3       3 UNK         0.0250 
     58 CB        -81.3578   20.7285  -76.4293 C.3       3 UNK        -0.1996 
     59 N         -81.7544   22.9018  -75.3054 N.am      3 UNK        -0.4254 
     60 C         -83.0672   23.1465  -75.3830 C.2       2 UNK         0.5004 
     61 O         -83.7817   22.8048  -76.3265 O.2       2 UNK        -0.5226 
     62 CA        -83.6844   23.9280  -74.2127 C.3       2 UNK         0.0269 
     63 CB        -83.6767   23.0974  -72.9178 C.3       2 UNK        -0.1926 
     64 N         -83.0305   25.2177  -73.9738 N.am      2 UNK        -0.4687 
     65 C         -83.0145   26.2509  -74.8268 C.2       1 UNK         0.5165 
     66 O         -83.5105   26.2031  -75.9532 O.2       1 UNK        -0.5079 
     67 H67       -81.6981   28.1713  -69.9290 H         1 UNK         0.0900 
     68 H68       -83.2415   28.7207  -70.5846 H         1 UNK         0.0900 
     69 H69       -83.1000   27.0981  -69.9042 H         1 UNK         0.0900 
     70 H70       -83.3040   28.6708  -72.7953 H         1 UNK         0.2959 
     71 H71       -82.9626   28.3412  -74.9004 H         1 UNK         0.1079 
     72 H72       -80.2350   27.2722  -74.0309 H         1 UNK         0.0837 
     73 H73       -80.7123   27.2237  -75.7000 H         1 UNK         0.0837 
     74 H74       -79.8992   31.1200  -73.3619 H         1 UNK         0.0685 
     75 H75       -80.6425   29.7344  -72.6205 H         1 UNK         0.0685 
     76 H76       -79.2394   27.9995  -71.6752 H         1 UNK         0.1434 
     77 H77       -74.9802   28.2748  -72.0733 H         1 UNK         0.1329 
     78 H78       -77.5208   30.9232  -74.2938 H         1 UNK         0.1335 
     79 H79       -74.1246   29.5609  -74.0602 H         1 UNK         0.0680 
     80 H80       -75.1690   30.6695  -74.9009 H         1 UNK         0.0680 
     81 H81       -73.0900   31.3362  -70.8889 H         1 UNK         0.1032 
     82 H82       -73.2374   29.8450  -71.7740 H         1 UNK         0.1032 
     83 H83       -71.3828   32.1771  -72.4658 H         1 UNK         0.0461 
     84 H84       -69.6894   29.2197  -72.8347 H         1 UNK         0.3453 
     85 H85       -68.9796   29.2108  -71.2389 H         1 UNK         0.3453 
     86 H86       -72.0722   29.8483  -74.0711 H         1 UNK         0.2984 
     87 H87       -71.3713   30.7854  -76.6870 H         1 UNK         0.0554 
     88 H88       -69.0200   31.4297  -77.0638 H         1 UNK         0.0847 
     89 H89       -69.3218   29.8704  -77.8106 H         1 UNK         0.0847 
     90 H90       -68.4458   29.9641  -76.2835 H         1 UNK         0.0847 
     91 H91       -71.8551   28.6285  -76.5090 H         1 UNK         0.3141 
     92 H92       -70.3062   25.8041  -75.5509 H         1 UNK         0.0743 
     93 H93       -70.7554   26.0901  -73.1561 H         1 UNK         0.0784 
     94 H94       -72.3000   26.8587  -73.4760 H         1 UNK         0.0784 
     95 H95       -72.0640   25.1527  -73.8570 H         1 UNK         0.0784 
     96 H96       -73.1322   26.3726  -75.8387 H         1 UNK         0.3213 
     97 H97       -73.1981   26.8894  -79.2317 H         1 UNK         0.0855 
     98 H98       -73.3499   23.9504  -78.3813 H         1 UNK         0.0814 
     99 H99       -72.4789   24.6023  -79.7579 H         1 UNK         0.0814 
    100 H100      -74.2338   24.6516  -79.7379 H         1 UNK         0.0814 
    101 H101      -75.0371   25.5591  -77.3924 H         1 UNK         0.3105 
    102 H102      -76.2315   28.5213  -75.9113 H         1 UNK         0.0547 
    103 H103      -78.4316   28.0674  -76.9418 H         1 UNK         0.0837 
    104 H104      -77.3621   28.8021  -78.1215 H         1 UNK         0.0837 
    105 H105      -77.6786   27.0739  -78.1914 H         1 UNK         0.0837 
    106 H106      -77.4262   25.9714  -75.9466 H         1 UNK         0.3020 
    107 H107      -75.2387   24.2229  -73.8069 H         1 UNK         0.1245 
    108 H108      -77.5037   24.0154  -72.5211 H         1 UNK         0.0781 
    109 H109      -77.8243   25.6511  -73.0118 H         1 UNK         0.0781 
    110 H110      -76.4170   27.2697  -69.8737 H         1 UNK         0.0836 
    111 H111      -77.9028   26.5281  -70.4124 H         1 UNK         0.0836 
    112 H112      -77.7035   23.3365  -74.6677 H         1 UNK         0.3022 
    113 H113      -76.7774   22.0968  -77.8587 H         1 UNK         0.0747 
    114 H114      -77.1595   19.9245  -76.7434 H         1 UNK         0.0793 
    115 H115      -75.6336   20.6182  -76.2208 H         1 UNK         0.0793 
    116 H116      -77.0299   20.6799  -75.1562 H         1 UNK         0.0793 
    117 H117      -78.9474   22.2182  -77.8262 H         1 UNK         0.3047 
    118 H118      -81.0762   22.7140  -77.2665 H         1 UNK         0.0822 
    119 H119      -80.7058   20.1936  -77.1214 H         1 UNK         0.0807 
    120 H120      -82.3741   20.6186  -76.8065 H         1 UNK         0.0807 
    121 H121      -81.3012   20.2163  -75.4678 H         1 UNK         0.0807 
    122 H122      -81.2347   23.2176  -74.4956 H         1 UNK         0.2946 
    123 H123      -84.7253   24.1308  -74.4751 H         1 UNK         0.1144 
    124 H124      -84.2272   23.6011  -72.1230 H         1 UNK         0.0793 
    125 H125      -82.6641   22.9135  -72.5566 H         1 UNK         0.0793 
    126 H126      -84.1502   22.1269  -73.0733 H         1 UNK         0.0793 
    127 H127      -82.5585   25.3509  -73.0835 H         1 UNK         0.2896 
@<TRIPOS>BOND
     1    1    2 1    
     2    1   67 1    
     3    1   68 1    
     4    1   69 1    
     5    2    3 2    
     6    2    4 am   BACKBONE|DICT|INTERRES
     7    4    5 1    
     8    4   70 1    
     9    5    6 1    
    10    5   65 1    
    11    5   71 1    
    12    6    7 1    
    13    6   72 1    
    14    6   73 1    
    15    7    8 1    
    16    8    9 1    
    17    8   74 1    
    18    8   75 1    
    19    9   10 ar   
    20    9   14 ar   
    21   10   11 ar   
    22   10   76 1    
    23   11   12 ar   
    24   11   48 1    
    25   12   13 ar   
    26   12   77 1    
    27   13   14 ar   
    28   13   15 1    
    29   14   78 1    
    30   15   16 1    
    31   15   79 1    
    32   15   80 1    
    33   16   17 1    
    34   17   18 1    
    35   17   81 1    
    36   17   82 1    
    37   18   19 1    
    38   18   22 1    
    39   18   83 1    
    40   19   20 am   BACKBONE|DICT|INTERRES
    41   19   21 2    
    42   20   84 1    
    43   20   85 1    
    44   22   23 am   BACKBONE|DICT|INTERRES
    45   22   86 1    
    46   23   24 2    
    47   23   25 1    
    48   25   26 1    
    49   25   27 1    
    50   25   87 1    
    51   26   88 1    
    52   26   89 1    
    53   26   90 1    
    54   27   28 am   BACKBONE|DICT|INTERRES
    55   27   91 1    
    56   28   29 2    
    57   28   30 1    
    58   30   31 1    
    59   30   32 1    
    60   30   92 1    
    61   31   93 1    
    62   31   94 1    
    63   31   95 1    
    64   32   33 am   BACKBONE|DICT|INTERRES
    65   32   96 1    
    66   33   34 2    
    67   33   35 1    
    68   35   36 1    
    69   35   37 1    
    70   35   97 1    
    71   36   98 1    
    72   36   99 1    
    73   36  100 1    
    74   37   38 am   BACKBONE|DICT|INTERRES
    75   37  101 1    
    76   38   39 2    
    77   38   40 1    
    78   40   41 1    
    79   40   42 1    
    80   40  102 1    
    81   41  103 1    
    82   41  104 1    
    83   41  105 1    
    84   42   43 am   BACKBONE|DICT|INTERRES
    85   42  106 1    
    86   43   44 2    
    87   43   45 1    
    88   45   46 1    
    89   45   49 1    
    90   45  107 1    
    91   46   47 1    
    92   46  108 1    
    93   46  109 1    
    94   47   48 1    
    95   48  110 1    
    96   48  111 1    
    97   49   50 am   BACKBONE|DICT|INTERRES
    98   49  112 1    
    99   50   51 2    
   100   50   52 1    
   101   52   53 1    
   102   52   54 1    
   103   52  113 1    
   104   53  114 1    
   105   53  115 1    
   106   53  116 1    
   107   54   55 am   BACKBONE|DICT|INTERRES
   108   54  117 1    
   109   55   56 2    
   110   55   57 1    
   111   57   58 1    
   112   57   59 1    
   113   57  118 1    
   114   58  119 1    
   115   58  120 1    
   116   58  121 1    
   117   59   60 am   BACKBONE|DICT|INTERRES
   118   59  122 1    
   119   60   61 2    
   120   60   62 1    
   121   62   63 1    
   122   62   64 1    
   123   62  123 1    
   124   63  124 1    
   125   63  125 1    
   126   63  126 1    
   127   64   65 am   BACKBONE|DICT|INTERRES
   128   64  127 1    
   129   65   66 2    
@<TRIPOS>SUBSTRUCTURE
     1 UNK         1 GROUP             0       ****    0 ROOT    
