@<TRIPOS>MOLECULE
3R135
127   129    1
SMALL
USER_CHARGES


@<TRIPOS>ATOM
      1 CA        -77.7805   27.4672  -75.3984 C.3       0 UNK        -0.1998 
      2 C         -78.7013   26.5057  -74.6661 C.2       0 UNK         0.4909 
      3 O         -78.8078   25.3384  -75.0495 O.2       0 UNK        -0.5240 
      4 N         -79.3818   26.9876  -73.6185 N.am      1 UNK        -0.4739 
      5 CA        -80.4336   26.2770  -72.8761 C.3       1 UNK         0.0864 
      6 C6        -80.9167   27.0447  -71.6155 C.3       11 UNK        -0.0881 
      7 S7        -81.0494   28.8575  -71.8356 S.3       11 UNK        -0.2682 
      8 C8        -79.7036   29.4668  -70.7641 C.3       11 UNK         0.0289 
      9 C9        -78.3239   29.0583  -71.2663 C.ar      11 UNK        -0.0687 
     10 C10       -77.6786   27.9402  -70.7264 C.ar      11 UNK        -0.0823 
     11 C11       -76.4147   27.5581  -71.1832 C.ar      11 UNK        -0.0830 
     12 C12       -75.7806   28.3219  -72.1654 C.ar      11 UNK        -0.1021 
     13 C13       -76.4059   29.4495  -72.7054 C.ar      11 UNK        -0.0753 
     14 C14       -77.6828   29.8071  -72.2588 C.ar      11 UNK        -0.0933 
     15 C15       -75.7028   30.2768  -73.7741 C.3       11 UNK         0.0166 
     16 S16       -75.2068   31.9161  -73.1590 S.3       11 UNK        -0.2615 
     17 C17       -73.9790   31.5015  -71.8716 C.3       11 UNK        -0.0865 
     18 CA        -72.5697   32.0600  -72.1987 C.3       10 UNK         0.0862 
     19 C         -71.6412   32.0225  -70.9484 C.2       10 UNK         0.5551 
     20 N         -70.4854   31.3701  -70.9918 N.am      10 UNK        -0.7319 
     21 O         -71.9716   32.6088  -69.9205 O.2       10 UNK        -0.5018 
     22 N         -71.9878   31.4195  -73.3931 N.am      10 UNK        -0.4509 
     23 C         -71.1593   32.0274  -74.2523 C.2       10 UNK         0.4899 
     24 O         -70.8645   33.2212  -74.1793 O.2       10 UNK        -0.4839 
     25 CA        -70.5188   31.1752  -75.3671 C.3       9 UNK         0.0222 
     26 CB        -68.9842   31.2946  -75.3283 C.3       9 UNK        -0.1966 
     27 N         -70.8755   29.7523  -75.3195 N.am      9 UNK        -0.4218 
     28 C         -71.9638   29.2147  -75.8830 C.2       9 UNK         0.5020 
     29 O         -72.8462   29.8702  -76.4419 O.2       9 UNK        -0.5274 
     30 CA        -72.0960   27.6878  -75.7720 C.3       8 UNK         0.0270 
     31 CB        -72.8840   27.2895  -74.5151 C.3       8 UNK        -0.1976 
     32 N         -72.7838   27.1468  -76.9393 N.am      8 UNK        -0.4313 
     33 C         -72.2233   26.8711  -78.1197 C.2       8 UNK         0.5041 
     34 O         -71.0125   26.9637  -78.3340 O.2       8 UNK        -0.5577 
     35 CA        -73.1794   26.4048  -79.2406 C.3       7 UNK         0.0284 
     36 CB        -72.4307   25.9778  -80.5177 C.3       7 UNK        -0.1958 
     37 N         -74.0711   25.3128  -78.8284 N.am      7 UNK        -0.4454 
     38 C         -75.1342   25.4288  -78.0208 C.2       7 UNK         0.5089 
     39 O         -75.4739   26.4960  -77.5066 O.2       7 UNK        -0.5125 
     40 CA        -75.9689   24.1662  -77.7332 C.3       6 UNK         0.0408 
     41 CB        -75.3952   22.8613  -78.3318 C.3       6 UNK        -0.1791 
     42 N         -76.2384   24.0110  -76.3005 N.am      6 UNK        -0.4762 
     43 C         -75.3493   23.8013  -75.3137 C.2       6 UNK         0.5007 
     44 O         -74.1335   23.7203  -75.4902 O.2       6 UNK        -0.5032 
     45 CA        -75.9143   23.6308  -73.8866 C.3       5 UNK         0.0783 
     46 C46       -75.6804   24.9116  -73.0464 C.3       11 UNK        -0.0857 
     47 S47       -76.3508   24.7875  -71.3542 S.3       11 UNK        -0.2512 
     48 C48       -75.7298   26.3275  -70.6050 C.3       11 UNK         0.0225 
     49 N         -77.3286   23.2425  -73.9331 N.am      5 UNK        -0.4615 
     50 C         -77.7698   21.9830  -74.0266 C.2       4 UNK         0.5053 
     51 O         -77.0332   20.9966  -74.0154 O.2       4 UNK        -0.5105 
     52 CA        -79.2828   21.7902  -74.1831 C.3       4 UNK         0.0263 
     53 CB        -80.0101   22.0391  -72.8512 C.3       4 UNK        -0.1981 
     54 N         -79.8280   22.6690  -75.2250 N.am      4 UNK        -0.4224 
     55 C         -80.5334   22.2405  -76.2807 C.2       3 UNK         0.4895 
     56 O         -80.8129   21.0567  -76.4804 O.2       3 UNK        -0.5091 
     57 CA        -81.0409   23.3158  -77.2558 C.3       3 UNK         0.0250 
     58 CB        -81.9106   22.7329  -78.3923 C.3       3 UNK        -0.1996 
     59 N         -81.7781   24.3351  -76.5113 N.am      3 UNK        -0.4254 
     60 C         -82.0901   25.5605  -76.9485 C.2       2 UNK         0.5004 
     61 O         -81.8291   25.9755  -78.0781 O.2       2 UNK        -0.5226 
     62 CA        -82.7739   26.5049  -75.9429 C.3       2 UNK         0.0269 
     63 CB        -84.2045   26.0472  -75.5916 C.3       2 UNK        -0.1926 
     64 N         -81.9445   26.7351  -74.7524 N.am      2 UNK        -0.4687 
     65 C         -81.6081   25.8654  -73.7872 C.2       1 UNK         0.5165 
     66 O         -82.1123   24.7493  -73.6572 O.2       1 UNK        -0.5079 
     67 H67       -77.9236   27.3721  -76.4744 H         1 UNK         0.0900 
     68 H68       -76.7371   27.2501  -75.1774 H         1 UNK         0.0900 
     69 H69       -77.9804   28.5024  -75.1250 H         1 UNK         0.0900 
     70 H70       -79.2208   27.9377  -73.3109 H         1 UNK         0.2959 
     71 H71       -79.9843   25.3459  -72.5285 H         1 UNK         0.1079 
     72 H72       -81.8827   26.6692  -71.2711 H         1 UNK         0.0837 
     73 H73       -80.2393   26.8349  -70.7891 H         1 UNK         0.0837 
     74 H74       -79.7633   30.5550  -70.7129 H         1 UNK         0.0685 
     75 H75       -79.8621   29.1087  -69.7456 H         1 UNK         0.0685 
     76 H76       -78.1600   27.3582  -69.9530 H         1 UNK         0.1434 
     77 H77       -74.7952   28.0378  -72.5026 H         1 UNK         0.1329 
     78 H78       -78.1706   30.6783  -72.6748 H         1 UNK         0.1335 
     79 H79       -74.8221   29.7618  -74.1588 H         1 UNK         0.0680 
     80 H80       -76.3729   30.4098  -74.6243 H         1 UNK         0.0680 
     81 H81       -73.9322   30.4238  -71.7130 H         1 UNK         0.1032 
     82 H82       -74.3546   31.9216  -70.9365 H         1 UNK         0.1032 
     83 H83       -72.6991   33.1223  -72.4153 H         1 UNK         0.0461 
     84 H84       -69.8935   31.3605  -70.1761 H         1 UNK         0.3453 
     85 H85       -70.1964   30.8955  -71.8311 H         1 UNK         0.3453 
     86 H86       -72.1841   30.4396  -73.5220 H         1 UNK         0.2984 
     87 H87       -70.8599   31.5913  -76.3176 H         1 UNK         0.0554 
     88 H88       -68.5215   30.7383  -76.1438 H         1 UNK         0.0847 
     89 H89       -68.5718   30.9217  -74.3899 H         1 UNK         0.0847 
     90 H90       -68.6664   32.3331  -75.4322 H         1 UNK         0.0847 
     91 H91       -70.2130   29.1391  -74.8649 H         1 UNK         0.3141 
     92 H92       -71.0975   27.2491  -75.7117 H         1 UNK         0.0743 
     93 H93       -72.4609   27.7394  -73.6161 H         1 UNK         0.0784 
     94 H94       -73.9271   27.5964  -74.5880 H         1 UNK         0.0784 
     95 H95       -72.8680   26.2084  -74.3747 H         1 UNK         0.0784 
     96 H96       -73.7972   27.0756  -76.8874 H         1 UNK         0.3213 
     97 H97       -73.7980   27.2679  -79.4972 H         1 UNK         0.0855 
     98 H98       -71.8051   26.7883  -80.8945 H         1 UNK         0.0814 
     99 H99       -73.1240   25.7121  -81.3159 H         1 UNK         0.0814 
    100 H100      -71.7803   25.1212  -80.3366 H         1 UNK         0.0814 
    101 H101      -73.8371   24.3929  -79.1721 H         1 UNK         0.3105 
    102 H102      -76.9387   24.3394  -78.2018 H         1 UNK         0.0547 
    103 H103      -75.3322   22.9171  -79.4193 H         1 UNK         0.0837 
    104 H104      -74.3995   22.6328  -77.9499 H         1 UNK         0.0837 
    105 H105      -76.0371   22.0117  -78.0984 H         1 UNK         0.0837 
    106 H106      -77.2030   24.1480  -76.0265 H         1 UNK         0.3020 
    107 H107      -75.3444   22.8239  -73.4196 H         1 UNK         0.1245 
    108 H108      -76.1302   25.7779  -73.5272 H         1 UNK         0.0781 
    109 H109      -74.6120   25.1217  -72.9728 H         1 UNK         0.0781 
    110 H110      -74.6482   26.3874  -70.7358 H         1 UNK         0.0836 
    111 H111      -75.9015   26.2885  -69.5283 H         1 UNK         0.0836 
    112 H112      -77.9904   24.0087  -73.9922 H         1 UNK         0.3022 
    113 H113      -79.4380   20.7429  -74.4510 H         1 UNK         0.0747 
    114 H114      -81.0840   21.8802  -72.9521 H         1 UNK         0.0793 
    115 H115      -79.6513   21.3576  -72.0789 H         1 UNK         0.0793 
    116 H116      -79.8571   23.0531  -72.4853 H         1 UNK         0.0793 
    117 H117      -79.6064   23.6603  -75.1584 H         1 UNK         0.3047 
    118 H118      -80.1582   23.7823  -77.6985 H         1 UNK         0.0822 
    119 H119      -82.1955   23.4964  -79.1158 H         1 UNK         0.0807 
    120 H120      -82.8249   22.2817  -78.0052 H         1 UNK         0.0807 
    121 H121      -81.3708   21.9611  -78.9425 H         1 UNK         0.0807 
    122 H122      -81.9958   24.1147  -75.5428 H         1 UNK         0.2946 
    123 H123      -82.8598   27.4749  -76.4361 H         1 UNK         0.1144 
    124 H124      -84.8236   25.9990  -76.4883 H         1 UNK         0.0793 
    125 H125      -84.6841   26.7442  -74.9045 H         1 UNK         0.0793 
    126 H126      -84.2277   25.0581  -75.1344 H         1 UNK         0.0793 
    127 H127      -81.4421   27.6124  -74.7506 H         1 UNK         0.2896 
@<TRIPOS>BOND
     1    1    2 1    
     2    1   67 1    
     3    1   68 1    
     4    1   69 1    
     5    2    3 2    
     6    2    4 am   BACKBONE|DICT|INTERRES
     7    4    5 1    
     8    4   70 1    
     9    5    6 1    
    10    5   65 1    
    11    5   71 1    
    12    6    7 1    
    13    6   72 1    
    14    6   73 1    
    15    7    8 1    
    16    8    9 1    
    17    8   74 1    
    18    8   75 1    
    19    9   10 ar   
    20    9   14 ar   
    21   10   11 ar   
    22   10   76 1    
    23   11   12 ar   
    24   11   48 1    
    25   12   13 ar   
    26   12   77 1    
    27   13   14 ar   
    28   13   15 1    
    29   14   78 1    
    30   15   16 1    
    31   15   79 1    
    32   15   80 1    
    33   16   17 1    
    34   17   18 1    
    35   17   81 1    
    36   17   82 1    
    37   18   19 1    
    38   18   22 1    
    39   18   83 1    
    40   19   20 am   BACKBONE|DICT|INTERRES
    41   19   21 2    
    42   20   84 1    
    43   20   85 1    
    44   22   23 am   BACKBONE|DICT|INTERRES
    45   22   86 1    
    46   23   24 2    
    47   23   25 1    
    48   25   26 1    
    49   25   27 1    
    50   25   87 1    
    51   26   88 1    
    52   26   89 1    
    53   26   90 1    
    54   27   28 am   BACKBONE|DICT|INTERRES
    55   27   91 1    
    56   28   29 2    
    57   28   30 1    
    58   30   31 1    
    59   30   32 1    
    60   30   92 1    
    61   31   93 1    
    62   31   94 1    
    63   31   95 1    
    64   32   33 am   BACKBONE|DICT|INTERRES
    65   32   96 1    
    66   33   34 2    
    67   33   35 1    
    68   35   36 1    
    69   35   37 1    
    70   35   97 1    
    71   36   98 1    
    72   36   99 1    
    73   36  100 1    
    74   37   38 am   BACKBONE|DICT|INTERRES
    75   37  101 1    
    76   38   39 2    
    77   38   40 1    
    78   40   41 1    
    79   40   42 1    
    80   40  102 1    
    81   41  103 1    
    82   41  104 1    
    83   41  105 1    
    84   42   43 am   BACKBONE|DICT|INTERRES
    85   42  106 1    
    86   43   44 2    
    87   43   45 1    
    88   45   46 1    
    89   45   49 1    
    90   45  107 1    
    91   46   47 1    
    92   46  108 1    
    93   46  109 1    
    94   47   48 1    
    95   48  110 1    
    96   48  111 1    
    97   49   50 am   BACKBONE|DICT|INTERRES
    98   49  112 1    
    99   50   51 2    
   100   50   52 1    
   101   52   53 1    
   102   52   54 1    
   103   52  113 1    
   104   53  114 1    
   105   53  115 1    
   106   53  116 1    
   107   54   55 am   BACKBONE|DICT|INTERRES
   108   54  117 1    
   109   55   56 2    
   110   55   57 1    
   111   57   58 1    
   112   57   59 1    
   113   57  118 1    
   114   58  119 1    
   115   58  120 1    
   116   58  121 1    
   117   59   60 am   BACKBONE|DICT|INTERRES
   118   59  122 1    
   119   60   61 2    
   120   60   62 1    
   121   62   63 1    
   122   62   64 1    
   123   62  123 1    
   124   63  124 1    
   125   63  125 1    
   126   63  126 1    
   127   64   65 am   BACKBONE|DICT|INTERRES
   128   64  127 1    
   129   65   66 2    
@<TRIPOS>SUBSTRUCTURE
     1 UNK         1 GROUP             0       ****    0 ROOT    
