@<TRIPOS>MOLECULE
3R135
127   129    1
SMALL
USER_CHARGES


@<TRIPOS>ATOM
      1 CA        -83.4114   24.3531  -69.9944 C.3       0 UNK        -0.1998 
      2 C         -83.4960   25.3816  -71.1119 C.2       0 UNK         0.4909 
      3 O         -84.5447   25.5158  -71.7432 O.2       0 UNK        -0.5240 
      4 N         -82.3991   26.1090  -71.3610 N.am      1 UNK        -0.4739 
      5 CA        -82.2981   27.1504  -72.3955 C.3       1 UNK         0.0864 
      6 C6        -81.0864   28.0842  -72.1590 C.3       11 UNK        -0.0881 
      7 S7        -81.0833   28.8386  -70.4939 S.3       11 UNK        -0.2682 
      8 C8        -80.0711   30.3363  -70.7540 C.3       11 UNK         0.0289 
      9 C9        -78.7628   30.0547  -71.4853 C.ar      11 UNK        -0.0687 
     10 C10       -77.9090   29.0368  -71.0543 C.ar      11 UNK        -0.0823 
     11 C11       -76.7548   28.7250  -71.7755 C.ar      11 UNK        -0.0830 
     12 C12       -76.4266   29.4752  -72.9110 C.ar      11 UNK        -0.1021 
     13 C13       -77.2470   30.5335  -73.3295 C.ar      11 UNK        -0.0753 
     14 C14       -78.4168   30.8043  -72.6125 C.ar      11 UNK        -0.0933 
     15 C15       -76.9523   31.4042  -74.5545 C.3       11 UNK         0.0166 
     16 S16       -75.3745   31.1014  -75.4178 S.3       11 UNK        -0.2615 
     17 C17       -74.1688   31.9336  -74.3381 C.3       11 UNK        -0.0865 
     18 CA        -72.7211   31.4440  -74.6222 C.3       10 UNK         0.0862 
     19 C         -71.6709   32.5064  -74.1773 C.2       10 UNK         0.5551 
     20 N         -70.7511   32.2038  -73.2683 N.am      10 UNK        -0.7319 
     21 O         -71.6846   33.6284  -74.6777 O.2       10 UNK        -0.5018 
     22 N         -72.4742   30.0971  -74.0707 N.am      10 UNK        -0.4509 
     23 C         -71.5807   29.2258  -74.5620 C.2       10 UNK         0.4899 
     24 O         -70.9944   29.3772  -75.6341 O.2       10 UNK        -0.4839 
     25 CA        -71.2061   28.0220  -73.6817 C.3       9 UNK         0.0222 
     26 CB        -71.7597   28.0823  -72.2428 C.3       9 UNK        -0.1966 
     27 N         -71.6241   26.7683  -74.3083 N.am      9 UNK        -0.4218 
     28 C         -70.8421   25.6898  -74.4519 C.2       9 UNK         0.5020 
     29 O         -69.6444   25.6646  -74.1619 O.2       9 UNK        -0.5274 
     30 CA        -71.5027   24.3984  -74.9646 C.3       8 UNK         0.0270 
     31 CB        -72.2139   23.6691  -73.8126 C.3       8 UNK        -0.1976 
     32 N         -72.4426   24.6106  -76.0663 N.am      8 UNK        -0.4313 
     33 C         -72.0838   24.9133  -77.3221 C.2       8 UNK         0.5041 
     34 O         -70.9152   25.0432  -77.6895 O.2       8 UNK        -0.5577 
     35 CA        -73.2181   25.0955  -78.3471 C.3       7 UNK         0.0284 
     36 CB        -73.6891   23.7365  -78.8896 C.3       7 UNK        -0.1958 
     37 N         -74.3586   25.8251  -77.7927 N.am      7 UNK        -0.4454 
     38 C         -74.3298   27.1191  -77.4485 C.2       7 UNK         0.5089 
     39 O         -73.3789   27.8665  -77.6740 O.2       7 UNK        -0.5125 
     40 CA        -75.5511   27.6650  -76.6925 C.3       6 UNK         0.0408 
     41 CB        -76.6087   28.2214  -77.6573 C.3       6 UNK        -0.1791 
     42 N         -76.1597   26.6890  -75.7877 N.am      6 UNK        -0.4762 
     43 C         -75.5601   26.2086  -74.6887 C.2       6 UNK         0.5007 
     44 O         -74.4353   26.5474  -74.3222 O.2       6 UNK        -0.5032 
     45 CA        -76.3268   25.1285  -73.9041 C.3       5 UNK         0.0783 
     46 C46       -77.3711   25.7573  -72.9438 C.3       11 UNK        -0.0857 
     47 S47       -76.7376   25.9727  -71.2465 S.3       11 UNK        -0.2512 
     48 C48       -75.8653   27.5744  -71.3251 C.3       11 UNK         0.0225 
     49 N         -76.9317   24.1603  -74.8226 N.am      5 UNK        -0.4615 
     50 C         -76.2322   23.2854  -75.5609 C.2       4 UNK         0.5053 
     51 O         -75.0089   23.1706  -75.4989 O.2       4 UNK        -0.5105 
     52 CA        -77.0151   22.4299  -76.5738 C.3       4 UNK         0.0263 
     53 CB        -77.5011   21.1293  -75.9158 C.3       4 UNK        -0.1981 
     54 N         -78.1566   23.1365  -77.1595 N.am      4 UNK        -0.4224 
     55 C         -78.0667   24.2549  -77.8941 C.2       3 UNK         0.4895 
     56 O         -76.9976   24.7495  -78.2486 O.2       3 UNK        -0.5091 
     57 CA        -79.3805   24.9771  -78.2471 C.3       3 UNK         0.0250 
     58 CB        -79.8206   24.6183  -79.6750 C.3       3 UNK        -0.1996 
     59 N         -80.4860   24.7159  -77.3149 N.am      3 UNK        -0.4254 
     60 C         -80.4753   24.9946  -76.0031 C.2       2 UNK         0.5004 
     61 O         -79.5081   25.4851  -75.4143 O.2       2 UNK        -0.5226 
     62 CA        -81.7222   24.5661  -75.2132 C.3       2 UNK         0.0269 
     63 CB        -81.6626   23.0599  -74.9054 C.3       2 UNK        -0.1926 
     64 N         -81.8500   25.2917  -73.9494 N.am      2 UNK        -0.4687 
     65 C         -82.2504   26.5650  -73.8253 C.2       1 UNK         0.5165 
     66 O         -82.5881   27.2680  -74.7793 O.2       1 UNK        -0.5079 
     67 H67       -83.6048   23.3553  -70.3873 H         1 UNK         0.0900 
     68 H68       -84.1568   24.5687  -69.2293 H         1 UNK         0.0900 
     69 H69       -82.4306   24.3466  -69.5193 H         1 UNK         0.0900 
     70 H70       -81.5746   25.9815  -70.7912 H         1 UNK         0.2959 
     71 H71       -83.2033   27.7595  -72.3400 H         1 UNK         0.1079 
     72 H72       -80.1498   27.5377  -72.2893 H         1 UNK         0.0837 
     73 H73       -81.0791   28.8846  -72.9020 H         1 UNK         0.0837 
     74 H74       -80.6707   31.0642  -71.3029 H         1 UNK         0.0685 
     75 H75       -79.8479   30.7861  -69.7859 H         1 UNK         0.0685 
     76 H76       -78.1667   28.4552  -70.1795 H         1 UNK         0.1434 
     77 H77       -75.5333   29.2238  -73.4646 H         1 UNK         0.1329 
     78 H78       -79.0693   31.6010  -72.9435 H         1 UNK         0.1335 
     79 H79       -77.7549   31.2500  -75.2772 H         1 UNK         0.0680 
     80 H80       -76.9951   32.4564  -74.2689 H         1 UNK         0.0680 
     81 H81       -74.4333   31.7824  -73.2902 H         1 UNK         0.1032 
     82 H82       -74.2711   33.0048  -74.5242 H         1 UNK         0.1032 
     83 H83       -72.6067   31.3858  -75.7066 H         1 UNK         0.0461 
     84 H84       -70.7192   31.2880  -72.8526 H         1 UNK         0.3453 
     85 H85       -70.0777   32.9038  -72.9985 H         1 UNK         0.3453 
     86 H86       -72.9028   29.8976  -73.1799 H         1 UNK         0.2984 
     87 H87       -70.1173   28.0540  -73.6066 H         1 UNK         0.0554 
     88 H88       -71.3964   27.2416  -71.6512 H         1 UNK         0.0847 
     89 H89       -72.8472   28.0469  -72.2242 H         1 UNK         0.0847 
     90 H90       -71.4411   28.9898  -71.7285 H         1 UNK         0.0847 
     91 H91       -72.6124   26.6964  -74.5469 H         1 UNK         0.3141 
     92 H92       -70.7062   23.7455  -75.3281 H         1 UNK         0.0743 
     93 H93       -73.0467   24.2518  -73.4179 H         1 UNK         0.0784 
     94 H94       -72.6042   22.7038  -74.1357 H         1 UNK         0.0784 
     95 H95       -71.5272   23.4801  -72.9864 H         1 UNK         0.0784 
     96 H96       -73.4242   24.4525  -75.8642 H         1 UNK         0.3213 
     97 H97       -72.8220   25.6761  -79.1831 H         1 UNK         0.0855 
     98 H98       -74.0876   23.1004  -78.0992 H         1 UNK         0.0814 
     99 H99       -72.8637   23.1973  -79.3563 H         1 UNK         0.0814 
    100 H100      -74.4663   23.8582  -79.6444 H         1 UNK         0.0814 
    101 H101      -75.2291   25.3142  -77.6735 H         1 UNK         0.3105 
    102 H102      -75.1870   28.4799  -76.0717 H         1 UNK         0.0547 
    103 H103      -76.1804   28.9984  -78.2917 H         1 UNK         0.0837 
    104 H104      -77.0077   27.4485  -78.3140 H         1 UNK         0.0837 
    105 H105      -77.4412   28.6709  -77.1157 H         1 UNK         0.0837 
    106 H106      -77.0786   26.3432  -76.0286 H         1 UNK         0.3020 
    107 H107      -75.5909   24.5788  -73.3123 H         1 UNK         0.1245 
    108 H108      -78.2342   25.0961  -72.8507 H         1 UNK         0.0781 
    109 H109      -77.7818   26.6948  -73.3246 H         1 UNK         0.0781 
    110 H110      -75.0049   27.4693  -71.9817 H         1 UNK         0.0836 
    111 H111      -75.4650   27.8045  -70.3369 H         1 UNK         0.0836 
    112 H112      -77.9273   24.2654  -74.9835 H         1 UNK         0.3022 
    113 H113      -76.3320   22.1704  -77.3852 H         1 UNK         0.0747 
    114 H114      -77.9860   20.4746  -76.6402 H         1 UNK         0.0793 
    115 H115      -76.6650   20.5734  -75.4887 H         1 UNK         0.0793 
    116 H116      -78.2097   21.3229  -75.1093 H         1 UNK         0.0793 
    117 H117      -79.0759   22.7909  -76.9284 H         1 UNK         0.3047 
    118 H118      -79.1741   26.0487  -78.2126 H         1 UNK         0.0822 
    119 H119      -80.6903   25.1999  -79.9814 H         1 UNK         0.0807 
    120 H120      -80.0721   23.5610  -79.7675 H         1 UNK         0.0807 
    121 H121      -79.0256   24.8279  -80.3925 H         1 UNK         0.0807 
    122 H122      -81.3135   24.2946  -77.7131 H         1 UNK         0.2946 
    123 H123      -82.6066   24.7725  -75.8207 H         1 UNK         0.1144 
    124 H124      -80.7844   22.8027  -74.3112 H         1 UNK         0.0793 
    125 H125      -81.6217   22.4691  -75.8213 H         1 UNK         0.0793 
    126 H126      -82.5455   22.7336  -74.3551 H         1 UNK         0.0793 
    127 H127      -81.5711   24.8022  -73.1123 H         1 UNK         0.2896 
@<TRIPOS>BOND
     1    1    2 1    
     2    1   67 1    
     3    1   68 1    
     4    1   69 1    
     5    2    3 2    
     6    2    4 am   BACKBONE|DICT|INTERRES
     7    4    5 1    
     8    4   70 1    
     9    5    6 1    
    10    5   65 1    
    11    5   71 1    
    12    6    7 1    
    13    6   72 1    
    14    6   73 1    
    15    7    8 1    
    16    8    9 1    
    17    8   74 1    
    18    8   75 1    
    19    9   10 ar   
    20    9   14 ar   
    21   10   11 ar   
    22   10   76 1    
    23   11   12 ar   
    24   11   48 1    
    25   12   13 ar   
    26   12   77 1    
    27   13   14 ar   
    28   13   15 1    
    29   14   78 1    
    30   15   16 1    
    31   15   79 1    
    32   15   80 1    
    33   16   17 1    
    34   17   18 1    
    35   17   81 1    
    36   17   82 1    
    37   18   19 1    
    38   18   22 1    
    39   18   83 1    
    40   19   20 am   BACKBONE|DICT|INTERRES
    41   19   21 2    
    42   20   84 1    
    43   20   85 1    
    44   22   23 am   BACKBONE|DICT|INTERRES
    45   22   86 1    
    46   23   24 2    
    47   23   25 1    
    48   25   26 1    
    49   25   27 1    
    50   25   87 1    
    51   26   88 1    
    52   26   89 1    
    53   26   90 1    
    54   27   28 am   BACKBONE|DICT|INTERRES
    55   27   91 1    
    56   28   29 2    
    57   28   30 1    
    58   30   31 1    
    59   30   32 1    
    60   30   92 1    
    61   31   93 1    
    62   31   94 1    
    63   31   95 1    
    64   32   33 am   BACKBONE|DICT|INTERRES
    65   32   96 1    
    66   33   34 2    
    67   33   35 1    
    68   35   36 1    
    69   35   37 1    
    70   35   97 1    
    71   36   98 1    
    72   36   99 1    
    73   36  100 1    
    74   37   38 am   BACKBONE|DICT|INTERRES
    75   37  101 1    
    76   38   39 2    
    77   38   40 1    
    78   40   41 1    
    79   40   42 1    
    80   40  102 1    
    81   41  103 1    
    82   41  104 1    
    83   41  105 1    
    84   42   43 am   BACKBONE|DICT|INTERRES
    85   42  106 1    
    86   43   44 2    
    87   43   45 1    
    88   45   46 1    
    89   45   49 1    
    90   45  107 1    
    91   46   47 1    
    92   46  108 1    
    93   46  109 1    
    94   47   48 1    
    95   48  110 1    
    96   48  111 1    
    97   49   50 am   BACKBONE|DICT|INTERRES
    98   49  112 1    
    99   50   51 2    
   100   50   52 1    
   101   52   53 1    
   102   52   54 1    
   103   52  113 1    
   104   53  114 1    
   105   53  115 1    
   106   53  116 1    
   107   54   55 am   BACKBONE|DICT|INTERRES
   108   54  117 1    
   109   55   56 2    
   110   55   57 1    
   111   57   58 1    
   112   57   59 1    
   113   57  118 1    
   114   58  119 1    
   115   58  120 1    
   116   58  121 1    
   117   59   60 am   BACKBONE|DICT|INTERRES
   118   59  122 1    
   119   60   61 2    
   120   60   62 1    
   121   62   63 1    
   122   62   64 1    
   123   62  123 1    
   124   63  124 1    
   125   63  125 1    
   126   63  126 1    
   127   64   65 am   BACKBONE|DICT|INTERRES
   128   64  127 1    
   129   65   66 2    
@<TRIPOS>SUBSTRUCTURE
     1 UNK         1 GROUP             0       ****    0 ROOT    
