@<TRIPOS>MOLECULE
3R135
127   129    1
SMALL
USER_CHARGES


@<TRIPOS>ATOM
      1 CA        -85.5498   29.0395  -72.9069 C.3       0 UNK        -0.1998 
      2 C         -84.4850   28.7887  -73.9643 C.2       0 UNK         0.4909 
      3 O         -84.8035   28.7352  -75.1530 O.2       0 UNK        -0.5240 
      4 N         -83.2223   28.6438  -73.5427 N.am      1 UNK        -0.4739 
      5 CA        -82.0862   28.3227  -74.4123 C.3       1 UNK         0.0864 
      6 C6        -80.7451   28.6602  -73.7160 C.3       11 UNK        -0.0881 
      7 S7        -79.3731   28.8390  -74.9080 S.3       11 UNK        -0.2682 
      8 C8        -78.3611   30.1651  -74.1623 C.3       11 UNK         0.0289 
      9 C9        -77.6209   29.8124  -72.8685 C.ar      11 UNK        -0.0687 
     10 C10       -77.6664   28.5418  -72.2782 C.ar      11 UNK        -0.0823 
     11 C11       -76.9959   28.2825  -71.0803 C.ar      11 UNK        -0.0830 
     12 C12       -76.2477   29.2963  -70.4776 C.ar      11 UNK        -0.1021 
     13 C13       -76.1764   30.5641  -71.0594 C.ar      11 UNK        -0.0753 
     14 C14       -76.8678   30.8148  -72.2483 C.ar      11 UNK        -0.0933 
     15 C15       -75.3800   31.6742  -70.3897 C.3       11 UNK         0.0166 
     16 S16       -73.8178   32.0169  -71.2567 S.3       11 UNK        -0.2615 
     17 C17       -72.7975   30.5762  -70.7876 C.3       11 UNK        -0.0865 
     18 CA        -71.7610   30.2151  -71.8864 C.3       10 UNK         0.0862 
     19 C         -70.6870   29.1981  -71.3994 C.2       10 UNK         0.5551 
     20 N         -70.1458   28.3448  -72.2619 N.am      10 UNK        -0.7319 
     21 O         -70.3218   29.1865  -70.2262 O.2       10 UNK        -0.5018 
     22 N         -72.4186   29.7722  -73.1263 N.am      10 UNK        -0.4509 
     23 C         -72.2961   30.3556  -74.3226 C.2       10 UNK         0.4899 
     24 O         -71.6788   31.4038  -74.5215 O.2       10 UNK        -0.4839 
     25 CA        -72.9582   29.6114  -75.4992 C.3       9 UNK         0.0222 
     26 CB        -72.5676   30.1961  -76.8725 C.3       9 UNK        -0.1966 
     27 N         -72.7175   28.1619  -75.4827 N.am      9 UNK        -0.4218 
     28 C         -71.5349   27.5255  -75.4533 C.2       9 UNK         0.5020 
     29 O         -70.4476   28.0885  -75.3200 O.2       9 UNK        -0.5274 
     30 CA        -71.5659   25.9927  -75.5882 C.3       8 UNK         0.0270 
     31 CB        -71.7741   25.3341  -74.2149 C.3       8 UNK        -0.1976 
     32 N         -72.5901   25.5225  -76.5254 N.am      8 UNK        -0.4313 
     33 C         -72.5858   25.7568  -77.8466 C.2       8 UNK         0.5041 
     34 O         -71.6666   26.3205  -78.4420 O.2       8 UNK        -0.5577 
     35 CA        -73.8283   25.3100  -78.6354 C.3       7 UNK         0.0284 
     36 CB        -73.7392   23.8249  -79.0238 C.3       7 UNK        -0.1958 
     37 N         -75.0654   25.5638  -77.8930 N.am      7 UNK        -0.4454 
     38 C         -75.5939   26.7827  -77.7094 C.2       7 UNK         0.5089 
     39 O         -75.1441   27.8094  -78.2174 O.2       7 UNK        -0.5125 
     40 CA        -76.8262   26.8775  -76.7948 C.3       6 UNK         0.0408 
     41 CB        -78.1059   26.6812  -77.6202 C.3       6 UNK        -0.1791 
     42 N         -76.7937   25.9185  -75.6853 N.am      6 UNK        -0.4762 
     43 C         -75.9078   25.9640  -74.6766 C.2       6 UNK         0.5007 
     44 O         -75.0693   26.8564  -74.5528 O.2       6 UNK        -0.5032 
     45 CA        -75.8881   24.7694  -73.6976 C.3       5 UNK         0.0783 
     46 C46       -76.7956   24.9850  -72.4617 C.3       11 UNK        -0.0857 
     47 S47       -75.8835   25.7459  -71.0768 S.3       11 UNK        -0.2512 
     48 C48       -77.1045   26.9188  -70.4162 C.3       11 UNK         0.0225 
     49 N         -76.1810   23.5017  -74.3696 N.am      5 UNK        -0.4615 
     50 C         -75.3861   22.9318  -75.2847 C.2       4 UNK         0.5053 
     51 O         -74.3106   23.4136  -75.6369 O.2       4 UNK        -0.5105 
     52 CA        -75.8773   21.6284  -75.9386 C.3       4 UNK         0.0263 
     53 CB        -75.2046   20.4139  -75.2802 C.3       4 UNK        -0.1981 
     54 N         -77.3340   21.4654  -75.8885 N.am      4 UNK        -0.4224 
     55 C         -78.2094   22.2441  -76.5398 C.2       3 UNK         0.4895 
     56 O         -77.8659   23.1475  -77.3061 O.2       3 UNK        -0.5091 
     57 CA        -79.7061   21.9553  -76.2955 C.3       3 UNK         0.0250 
     58 CB        -80.0104   21.4976  -74.8498 C.3       3 UNK        -0.1996 
     59 N         -80.5769   23.0784  -76.6673 N.am      3 UNK        -0.4254 
     60 C         -80.5869   24.3157  -76.1467 C.2       2 UNK         0.5004 
     61 O         -79.8261   24.6923  -75.2502 O.2       2 UNK        -0.5226 
     62 CA        -81.5974   25.2946  -76.7862 C.3       2 UNK         0.0269 
     63 CB        -83.0041   24.6745  -76.9549 C.3       2 UNK        -0.1926 
     64 N         -81.6844   26.5928  -76.1018 N.am      2 UNK        -0.4687 
     65 C         -82.1443   26.8451  -74.8670 C.2       1 UNK         0.5165 
     66 O         -82.5932   25.9874  -74.1005 O.2       1 UNK        -0.5079 
     67 H67       -85.1280   29.0712  -71.9025 H         1 UNK         0.0900 
     68 H68       -86.2991   28.2489  -72.9348 H         1 UNK         0.0900 
     69 H69       -86.0492   29.9896  -73.0949 H         1 UNK         0.0900 
     70 H70       -83.0261   28.6616  -72.5521 H         1 UNK         0.2959 
     71 H71       -82.1791   28.9552  -75.2988 H         1 UNK         0.1079 
     72 H72       -80.8381   29.6018  -73.1721 H         1 UNK         0.0837 
     73 H73       -80.4937   27.9056  -72.9688 H         1 UNK         0.0837 
     74 H74       -78.9973   31.0340  -73.9877 H         1 UNK         0.0685 
     75 H75       -77.6213   30.4703  -74.9036 H         1 UNK         0.0685 
     76 H76       -78.2275   27.7446  -72.7378 H         1 UNK         0.1434 
     77 H77       -75.7272   29.0999  -69.5500 H         1 UNK         0.1329 
     78 H78       -76.8178   31.8000  -72.6922 H         1 UNK         0.1335 
     79 H79       -75.9795   32.5856  -70.3759 H         1 UNK         0.0680 
     80 H80       -75.1709   31.4323  -69.3464 H         1 UNK         0.0680 
     81 H81       -72.3004   30.8271  -69.8488 H         1 UNK         0.1032 
     82 H82       -73.4324   29.7155  -70.5752 H         1 UNK         0.1032 
     83 H83       -71.1868   31.1215  -72.0851 H         1 UNK         0.0461 
     84 H84       -70.3717   28.3878  -73.2481 H         1 UNK         0.3453 
     85 H85       -69.4453   27.6988  -71.9350 H         1 UNK         0.3453 
     86 H86       -72.9314   28.9041  -73.0656 H         1 UNK         0.2984 
     87 H87       -74.0348   29.7415  -75.3775 H         1 UNK         0.0554 
     88 H88       -73.0763   29.6742  -77.6832 H         1 UNK         0.0847 
     89 H89       -71.4940   30.1237  -77.0503 H         1 UNK         0.0847 
     90 H90       -72.8415   31.2493  -76.9438 H         1 UNK         0.0847 
     91 H91       -73.5583   27.5895  -75.4565 H         1 UNK         0.3141 
     92 H92       -70.5956   25.6738  -75.9746 H         1 UNK         0.0743 
     93 H93       -70.9667   25.5992  -73.5311 H         1 UNK         0.0784 
     94 H94       -72.7074   25.6519  -73.7507 H         1 UNK         0.0784 
     95 H95       -71.7899   24.2467  -74.2923 H         1 UNK         0.0784 
     96 H96       -73.3416   24.9547  -76.1409 H         1 UNK         0.3213 
     97 H97       -73.8615   25.8941  -79.5580 H         1 UNK         0.0855 
     98 H98       -73.6646   23.1746  -78.1528 H         1 UNK         0.0814 
     99 H99       -72.8579   23.6401  -79.6394 H         1 UNK         0.0814 
    100 H100      -74.6088   23.5127  -79.6024 H         1 UNK         0.0814 
    101 H101      -75.5032   24.7762  -77.4358 H         1 UNK         0.3105 
    102 H102      -76.8454   27.8823  -76.3677 H         1 UNK         0.0547 
    103 H103      -78.9923   26.8014  -77.0018 H         1 UNK         0.0837 
    104 H104      -78.1695   27.4179  -78.4220 H         1 UNK         0.0837 
    105 H105      -78.1472   25.6933  -78.0793 H         1 UNK         0.0837 
    106 H106      -77.4639   25.1594  -75.7192 H         1 UNK         0.3020 
    107 H107      -74.8568   24.6797  -73.3489 H         1 UNK         0.1245 
    108 H108      -77.1611   24.0279  -72.0858 H         1 UNK         0.0781 
    109 H109      -77.6917   25.5531  -72.7141 H         1 UNK         0.0781 
    110 H110      -76.9413   27.0171  -69.3419 H         1 UNK         0.0836 
    111 H111      -78.1134   26.5181  -70.5267 H         1 UNK         0.0836 
    112 H112      -77.0573   23.0561  -74.1431 H         1 UNK         0.3022 
    113 H113      -75.5772   21.6588  -76.9883 H         1 UNK         0.0747 
    114 H114      -75.4774   19.4866  -75.7844 H         1 UNK         0.0793 
    115 H115      -74.1177   20.4977  -75.3274 H         1 UNK         0.0793 
    116 H116      -75.4784   20.3195  -74.2286 H         1 UNK         0.0793 
    117 H117      -77.6886   20.7307  -75.2931 H         1 UNK         0.3047 
    118 H118      -79.9684   21.1365  -76.9671 H         1 UNK         0.0822 
    119 H119      -79.5490   20.5360  -74.6238 H         1 UNK         0.0807 
    120 H120      -81.0824   21.3719  -74.6963 H         1 UNK         0.0807 
    121 H121      -79.6559   22.2179  -74.1113 H         1 UNK         0.0807 
    122 H122      -81.2084   22.8899  -77.4328 H         1 UNK         0.2946 
    123 H123      -81.2104   25.5130  -77.7830 H         1 UNK         0.1144 
    124 H124      -82.9976   23.8490  -77.6669 H         1 UNK         0.0793 
    125 H125      -83.7170   25.4082  -77.3316 H         1 UNK         0.0793 
    126 H126      -83.3928   24.2877  -76.0122 H         1 UNK         0.0793 
    127 H127      -81.2935   27.3706  -76.6148 H         1 UNK         0.2896 
@<TRIPOS>BOND
     1    1    2 1    
     2    1   67 1    
     3    1   68 1    
     4    1   69 1    
     5    2    3 2    
     6    2    4 am   BACKBONE|DICT|INTERRES
     7    4    5 1    
     8    4   70 1    
     9    5    6 1    
    10    5   65 1    
    11    5   71 1    
    12    6    7 1    
    13    6   72 1    
    14    6   73 1    
    15    7    8 1    
    16    8    9 1    
    17    8   74 1    
    18    8   75 1    
    19    9   10 ar   
    20    9   14 ar   
    21   10   11 ar   
    22   10   76 1    
    23   11   12 ar   
    24   11   48 1    
    25   12   13 ar   
    26   12   77 1    
    27   13   14 ar   
    28   13   15 1    
    29   14   78 1    
    30   15   16 1    
    31   15   79 1    
    32   15   80 1    
    33   16   17 1    
    34   17   18 1    
    35   17   81 1    
    36   17   82 1    
    37   18   19 1    
    38   18   22 1    
    39   18   83 1    
    40   19   20 am   BACKBONE|DICT|INTERRES
    41   19   21 2    
    42   20   84 1    
    43   20   85 1    
    44   22   23 am   BACKBONE|DICT|INTERRES
    45   22   86 1    
    46   23   24 2    
    47   23   25 1    
    48   25   26 1    
    49   25   27 1    
    50   25   87 1    
    51   26   88 1    
    52   26   89 1    
    53   26   90 1    
    54   27   28 am   BACKBONE|DICT|INTERRES
    55   27   91 1    
    56   28   29 2    
    57   28   30 1    
    58   30   31 1    
    59   30   32 1    
    60   30   92 1    
    61   31   93 1    
    62   31   94 1    
    63   31   95 1    
    64   32   33 am   BACKBONE|DICT|INTERRES
    65   32   96 1    
    66   33   34 2    
    67   33   35 1    
    68   35   36 1    
    69   35   37 1    
    70   35   97 1    
    71   36   98 1    
    72   36   99 1    
    73   36  100 1    
    74   37   38 am   BACKBONE|DICT|INTERRES
    75   37  101 1    
    76   38   39 2    
    77   38   40 1    
    78   40   41 1    
    79   40   42 1    
    80   40  102 1    
    81   41  103 1    
    82   41  104 1    
    83   41  105 1    
    84   42   43 am   BACKBONE|DICT|INTERRES
    85   42  106 1    
    86   43   44 2    
    87   43   45 1    
    88   45   46 1    
    89   45   49 1    
    90   45  107 1    
    91   46   47 1    
    92   46  108 1    
    93   46  109 1    
    94   47   48 1    
    95   48  110 1    
    96   48  111 1    
    97   49   50 am   BACKBONE|DICT|INTERRES
    98   49  112 1    
    99   50   51 2    
   100   50   52 1    
   101   52   53 1    
   102   52   54 1    
   103   52  113 1    
   104   53  114 1    
   105   53  115 1    
   106   53  116 1    
   107   54   55 am   BACKBONE|DICT|INTERRES
   108   54  117 1    
   109   55   56 2    
   110   55   57 1    
   111   57   58 1    
   112   57   59 1    
   113   57  118 1    
   114   58  119 1    
   115   58  120 1    
   116   58  121 1    
   117   59   60 am   BACKBONE|DICT|INTERRES
   118   59  122 1    
   119   60   61 2    
   120   60   62 1    
   121   62   63 1    
   122   62   64 1    
   123   62  123 1    
   124   63  124 1    
   125   63  125 1    
   126   63  126 1    
   127   64   65 am   BACKBONE|DICT|INTERRES
   128   64  127 1    
   129   65   66 2    
@<TRIPOS>SUBSTRUCTURE
     1 UNK         1 GROUP             0       ****    0 ROOT    
