@<TRIPOS>MOLECULE
3R135
127   129    1
SMALL
USER_CHARGES


@<TRIPOS>ATOM
      1 CA        -80.8450   25.6528  -73.6162 C.3       0 UNK        -0.1998 
      2 C         -81.2002   26.7677  -74.5879 C.2       0 UNK         0.4909 
      3 O         -82.0828   26.5959  -75.4281 O.2       0 UNK        -0.5240 
      4 N         -80.5062   27.9080  -74.4883 N.am      1 UNK        -0.4739 
      5 CA        -80.6515   29.0842  -75.3595 C.3       1 UNK         0.0864 
      6 C6        -80.2511   30.3931  -74.6253 C.3       11 UNK        -0.0881 
      7 S7        -78.6340   30.2959  -73.7782 S.3       11 UNK        -0.2682 
      8 C8        -79.1453   30.1235  -72.0353 C.3       11 UNK         0.0289 
      9 C9        -78.2580   29.1441  -71.2802 C.ar      11 UNK        -0.0687 
     10 C10       -78.7915   27.9633  -70.7527 C.ar      11 UNK        -0.0823 
     11 C11       -77.9845   27.0753  -70.0339 C.ar      11 UNK        -0.0830 
     12 C12       -76.6249   27.3656  -69.8683 C.ar      11 UNK        -0.1021 
     13 C13       -76.0792   28.5486  -70.3847 C.ar      11 UNK        -0.0753 
     14 C14       -76.9064   29.4352  -71.0800 C.ar      11 UNK        -0.0933 
     15 C15       -74.6121   28.8926  -70.1470 C.3       11 UNK         0.0166 
     16 S16       -73.5824   28.6865  -71.6381 S.3       11 UNK        -0.2615 
     17 C17       -73.5122   30.3886  -72.3000 C.3       11 UNK        -0.0865 
     18 CA        -73.0827   30.5075  -73.7899 C.3       10 UNK         0.0862 
     19 C         -71.6370   30.0167  -74.0936 C.2       10 UNK         0.5551 
     20 N         -71.3427   29.5517  -75.3029 N.am      10 UNK        -0.7319 
     21 O         -70.7560   30.0921  -73.2401 O.2       10 UNK        -0.5018 
     22 N         -74.0817   29.9511  -74.7185 N.am      10 UNK        -0.4509 
     23 C         -74.8757   30.6799  -75.5144 C.2       10 UNK         0.4899 
     24 O         -74.9615   31.9075  -75.4421 O.2       10 UNK        -0.4839 
     25 CA        -75.6927   29.9277  -76.5913 C.3       9 UNK         0.0222 
     26 CB        -76.1955   30.8690  -77.7063 C.3       9 UNK        -0.1966 
     27 N         -75.0047   28.7720  -77.1868 N.am      9 UNK        -0.4218 
     28 C         -73.8018   28.7447  -77.7805 C.2       9 UNK         0.5020 
     29 O         -73.0377   29.7097  -77.8383 O.2       9 UNK        -0.5274 
     30 CA        -73.3609   27.3834  -78.3399 C.3       8 UNK         0.0270 
     31 CB        -71.9905   27.4228  -79.0450 C.3       8 UNK        -0.1976 
     32 N         -73.3282   26.4417  -77.2302 N.am      8 UNK        -0.4313 
     33 C         -73.5042   25.1211  -77.2762 C.2       8 UNK         0.5041 
     34 O         -73.6330   24.4760  -78.3176 O.2       8 UNK        -0.5577 
     35 CA        -73.5411   24.3915  -75.9189 C.3       7 UNK         0.0284 
     36 CB        -72.1446   24.3602  -75.2682 C.3       7 UNK        -0.1958 
     37 N         -74.5488   24.8918  -74.9704 N.am      7 UNK        -0.4454 
     38 C         -74.6803   26.1135  -74.4272 C.2       7 UNK         0.5089 
     39 O         -73.9380   27.0655  -74.6742 O.2       7 UNK        -0.5125 
     40 CA        -75.8390   26.3236  -73.4415 C.3       6 UNK         0.0408 
     41 CB        -76.9723   27.1279  -74.0803 C.3       6 UNK        -0.1791 
     42 N         -76.3787   25.0785  -72.9103 N.am      6 UNK        -0.4762 
     43 C         -75.8158   24.3837  -71.9121 C.2       6 UNK         0.5007 
     44 O         -74.7632   24.7006  -71.3569 O.2       6 UNK        -0.5032 
     45 CA        -76.5538   23.1107  -71.4545 C.3       5 UNK         0.0783 
     46 C46       -77.4204   23.3956  -70.2020 C.3       11 UNK        -0.0857 
     47 S47       -78.8755   24.4629  -70.5188 S.3       11 UNK        -0.2512 
     48 C48       -78.6109   25.8538  -69.3690 C.3       11 UNK         0.0225 
     49 N         -77.3268   22.4649  -72.5233 N.am      5 UNK        -0.4615 
     50 C         -76.8180   21.9878  -73.6670 C.2       4 UNK         0.5053 
     51 O         -75.6174   22.0166  -73.9432 O.2       4 UNK        -0.5105 
     52 CA        -77.7999   21.4065  -74.7005 C.3       4 UNK         0.0263 
     53 CB        -79.2842   21.4336  -74.2648 C.3       4 UNK        -0.1981 
     54 N         -77.6252   22.0533  -76.0062 N.am      4 UNK        -0.4224 
     55 C         -77.7880   23.3545  -76.2906 C.2       3 UNK         0.4895 
     56 O         -78.1448   24.1936  -75.4591 O.2       3 UNK        -0.5091 
     57 CA        -77.4914   23.7799  -77.7440 C.3       3 UNK         0.0250 
     58 CB        -77.8942   22.7082  -78.7777 C.3       3 UNK        -0.1996 
     59 N         -78.1822   25.0247  -78.0791 N.am      3 UNK        -0.4254 
     60 C         -77.6903   26.2548  -77.8960 C.2       2 UNK         0.5004 
     61 O         -76.5652   26.4951  -77.4614 O.2       2 UNK        -0.5226 
     62 CA        -78.6254   27.4238  -78.2118 C.3       2 UNK         0.0269 
     63 CB        -79.6351   27.1274  -79.3433 C.3       2 UNK        -0.1926 
     64 N         -79.3160   27.7742  -76.9765 N.am      2 UNK        -0.4687 
     65 C         -79.9387   28.9317  -76.7259 C.2       1 UNK         0.5165 
     66 O         -79.9789   29.8609  -77.5341 O.2       1 UNK        -0.5079 
     67 H67       -80.6006   24.7441  -74.1651 H         1 UNK         0.0900 
     68 H68       -79.9864   25.9103  -72.9967 H         1 UNK         0.0900 
     69 H69       -81.6878   25.4399  -72.9594 H         1 UNK         0.0900 
     70 H70       -79.7898   28.0007  -73.7823 H         1 UNK         0.2959 
     71 H71       -81.7106   29.1780  -75.6105 H         1 UNK         0.1079 
     72 H72       -81.0244   30.6493  -73.9003 H         1 UNK         0.0837 
     73 H73       -80.2286   31.2410  -75.3126 H         1 UNK         0.0837 
     74 H74       -79.1014   31.1011  -71.5534 H         1 UNK         0.0685 
     75 H75       -80.1853   29.8001  -71.9762 H         1 UNK         0.0685 
     76 H76       -79.8430   27.7431  -70.8772 H         1 UNK         0.1434 
     77 H77       -75.9959   26.6826  -69.3138 H         1 UNK         0.1329 
     78 H78       -76.5055   30.3585  -71.4701 H         1 UNK         0.1335 
     79 H79       -74.5272   29.9137  -69.7727 H         1 UNK         0.0680 
     80 H80       -74.2034   28.2527  -69.3636 H         1 UNK         0.0680 
     81 H81       -74.4831   30.8652  -72.1775 H         1 UNK         0.1032 
     82 H82       -72.8288   30.9629  -71.6721 H         1 UNK         0.1032 
     83 H83       -73.0030   31.5793  -73.9781 H         1 UNK         0.0461 
     84 H84       -70.4019   29.2481  -75.4950 H         1 UNK         0.3453 
     85 H85       -72.0273   29.5818  -76.0489 H         1 UNK         0.3453 
     86 H86       -74.0585   28.9380  -74.8116 H         1 UNK         0.2984 
     87 H87       -76.5760   29.5332  -76.0907 H         1 UNK         0.0554 
     88 H88       -76.7883   30.3335  -78.4468 H         1 UNK         0.0847 
     89 H89       -75.3684   31.3539  -78.2260 H         1 UNK         0.0847 
     90 H90       -76.8323   31.6549  -77.2979 H         1 UNK         0.0847 
     91 H91       -75.5332   27.8971  -77.1811 H         1 UNK         0.3141 
     92 H92       -74.1193   27.0642  -79.0580 H         1 UNK         0.0743 
     93 H93       -71.1940   27.7141  -78.3592 H         1 UNK         0.0784 
     94 H94       -71.7322   26.4502  -79.4640 H         1 UNK         0.0784 
     95 H95       -71.9952   28.1393  -79.8673 H         1 UNK         0.0784 
     96 H96       -73.3253   26.8552  -76.2965 H         1 UNK         0.3213 
     97 H97       -73.8263   23.3590  -76.1279 H         1 UNK         0.0855 
     98 H98       -71.7975   25.3566  -74.9923 H         1 UNK         0.0814 
     99 H99       -71.4063   23.9362  -75.9501 H         1 UNK         0.0814 
    100 H100      -72.1442   23.7465  -74.3674 H         1 UNK         0.0814 
    101 H101      -75.2233   24.1989  -74.6705 H         1 UNK         0.3105 
    102 H102      -75.4602   26.9056  -72.6048 H         1 UNK         0.0547 
    103 H103      -76.6190   28.1179  -74.3600 H         1 UNK         0.0837 
    104 H104      -77.3648   26.6443  -74.9715 H         1 UNK         0.0837 
    105 H105      -77.7944   27.2654  -73.3815 H         1 UNK         0.0837 
    106 H106      -77.2283   24.7282  -73.3350 H         1 UNK         0.3020 
    107 H107      -75.7753   22.4019  -71.1624 H         1 UNK         0.1245 
    108 H108      -76.8036   23.8243  -69.4102 H         1 UNK         0.0781 
    109 H109      -77.7890   22.4519  -69.7972 H         1 UNK         0.0781 
    110 H110      -78.0179   25.5350  -68.5110 H         1 UNK         0.0836 
    111 H111      -79.5804   26.1381  -68.9571 H         1 UNK         0.0836 
    112 H112      -78.3264   22.4315  -72.3849 H         1 UNK         0.3022 
    113 H113      -77.5148   20.3617  -74.8324 H         1 UNK         0.0747 
    114 H114      -79.9218   20.9926  -75.0311 H         1 UNK         0.0793 
    115 H115      -79.4399   20.8543  -73.3537 H         1 UNK         0.0793 
    116 H116      -79.6464   22.4457  -74.0829 H         1 UNK         0.0793 
    117 H117      -77.2996   21.4476  -76.7461 H         1 UNK         0.3047 
    118 H118      -76.4133   23.9372  -77.8197 H         1 UNK         0.0822 
    119 H119      -78.9395   22.4145  -78.6712 H         1 UNK         0.0807 
    120 H120      -77.2842   21.8091  -78.6857 H         1 UNK         0.0807 
    121 H121      -77.7551   23.0732  -79.7958 H         1 UNK         0.0807 
    122 H122      -79.1386   24.9353  -78.3889 H         1 UNK         0.2946 
    123 H123      -77.9968   28.2616  -78.5193 H         1 UNK         0.1144 
    124 H124      -80.1560   28.0344  -79.6504 H         1 UNK         0.0793 
    125 H125      -80.3931   26.4037  -79.0420 H         1 UNK         0.0793 
    126 H126      -79.1313   26.7369  -80.2287 H         1 UNK         0.0793 
    127 H127      -79.3122   27.0676  -76.2535 H         1 UNK         0.2896 
@<TRIPOS>BOND
     1    1    2 1    
     2    1   67 1    
     3    1   68 1    
     4    1   69 1    
     5    2    3 2    
     6    2    4 am   BACKBONE|DICT|INTERRES
     7    4    5 1    
     8    4   70 1    
     9    5    6 1    
    10    5   65 1    
    11    5   71 1    
    12    6    7 1    
    13    6   72 1    
    14    6   73 1    
    15    7    8 1    
    16    8    9 1    
    17    8   74 1    
    18    8   75 1    
    19    9   10 ar   
    20    9   14 ar   
    21   10   11 ar   
    22   10   76 1    
    23   11   12 ar   
    24   11   48 1    
    25   12   13 ar   
    26   12   77 1    
    27   13   14 ar   
    28   13   15 1    
    29   14   78 1    
    30   15   16 1    
    31   15   79 1    
    32   15   80 1    
    33   16   17 1    
    34   17   18 1    
    35   17   81 1    
    36   17   82 1    
    37   18   19 1    
    38   18   22 1    
    39   18   83 1    
    40   19   20 am   BACKBONE|DICT|INTERRES
    41   19   21 2    
    42   20   84 1    
    43   20   85 1    
    44   22   23 am   BACKBONE|DICT|INTERRES
    45   22   86 1    
    46   23   24 2    
    47   23   25 1    
    48   25   26 1    
    49   25   27 1    
    50   25   87 1    
    51   26   88 1    
    52   26   89 1    
    53   26   90 1    
    54   27   28 am   BACKBONE|DICT|INTERRES
    55   27   91 1    
    56   28   29 2    
    57   28   30 1    
    58   30   31 1    
    59   30   32 1    
    60   30   92 1    
    61   31   93 1    
    62   31   94 1    
    63   31   95 1    
    64   32   33 am   BACKBONE|DICT|INTERRES
    65   32   96 1    
    66   33   34 2    
    67   33   35 1    
    68   35   36 1    
    69   35   37 1    
    70   35   97 1    
    71   36   98 1    
    72   36   99 1    
    73   36  100 1    
    74   37   38 am   BACKBONE|DICT|INTERRES
    75   37  101 1    
    76   38   39 2    
    77   38   40 1    
    78   40   41 1    
    79   40   42 1    
    80   40  102 1    
    81   41  103 1    
    82   41  104 1    
    83   41  105 1    
    84   42   43 am   BACKBONE|DICT|INTERRES
    85   42  106 1    
    86   43   44 2    
    87   43   45 1    
    88   45   46 1    
    89   45   49 1    
    90   45  107 1    
    91   46   47 1    
    92   46  108 1    
    93   46  109 1    
    94   47   48 1    
    95   48  110 1    
    96   48  111 1    
    97   49   50 am   BACKBONE|DICT|INTERRES
    98   49  112 1    
    99   50   51 2    
   100   50   52 1    
   101   52   53 1    
   102   52   54 1    
   103   52  113 1    
   104   53  114 1    
   105   53  115 1    
   106   53  116 1    
   107   54   55 am   BACKBONE|DICT|INTERRES
   108   54  117 1    
   109   55   56 2    
   110   55   57 1    
   111   57   58 1    
   112   57   59 1    
   113   57  118 1    
   114   58  119 1    
   115   58  120 1    
   116   58  121 1    
   117   59   60 am   BACKBONE|DICT|INTERRES
   118   59  122 1    
   119   60   61 2    
   120   60   62 1    
   121   62   63 1    
   122   62   64 1    
   123   62  123 1    
   124   63  124 1    
   125   63  125 1    
   126   63  126 1    
   127   64   65 am   BACKBONE|DICT|INTERRES
   128   64  127 1    
   129   65   66 2    
@<TRIPOS>SUBSTRUCTURE
     1 UNK         1 GROUP             0       ****    0 ROOT    
