@<TRIPOS>MOLECULE
3R135
127   129    1
SMALL
USER_CHARGES


@<TRIPOS>ATOM
      1 CA        -86.1922   29.1352  -72.0493 C.3       0 UNK        -0.1998 
      2 C         -85.8301   28.2260  -73.2139 C.2       0 UNK         0.4909 
      3 O         -86.7082   27.5696  -73.7747 O.2       0 UNK        -0.5240 
      4 N         -84.5435   28.1852  -73.5836 N.am      1 UNK        -0.4739 
      5 CA        -83.9986   27.3403  -74.6547 C.3       1 UNK         0.0864 
      6 C6        -82.5864   27.8086  -75.0934 C.3       11 UNK        -0.0881 
      7 S7        -81.3909   27.9553  -73.7187 S.3       11 UNK        -0.2682 
      8 C8        -79.8407   28.1927  -74.6438 C.3       11 UNK         0.0289 
      9 C9        -78.6402   28.2854  -73.7127 C.ar      11 UNK        -0.0687 
     10 C10       -78.3189   27.2146  -72.8708 C.ar      11 UNK        -0.0823 
     11 C11       -77.2217   27.2933  -72.0086 C.ar      11 UNK        -0.0830 
     12 C12       -76.4507   28.4583  -71.9872 C.ar      11 UNK        -0.1021 
     13 C13       -76.7404   29.5212  -72.8433 C.ar      11 UNK        -0.0753 
     14 C14       -77.8403   29.4335  -73.7019 C.ar      11 UNK        -0.0933 
     15 C15       -75.8511   30.7531  -72.8382 C.3       11 UNK         0.0166 
     16 S16       -74.4354   30.5280  -73.9623 S.3       11 UNK        -0.2615 
     17 C17       -72.9999   30.9784  -72.9226 C.3       11 UNK        -0.0865 
     18 CA        -71.9256   29.8598  -72.7941 C.3       10 UNK         0.0862 
     19 C         -72.3221   28.6812  -71.8629 C.2       10 UNK         0.5551 
     20 N         -71.8909   27.4562  -72.1337 N.am      10 UNK        -0.7319 
     21 O         -72.9930   28.8826  -70.8541 O.2       10 UNK        -0.5018 
     22 N         -71.3716   29.4510  -74.0979 N.am      10 UNK        -0.4509 
     23 C         -70.3974   30.1137  -74.7353 C.2       10 UNK         0.4899 
     24 O         -69.8344   31.1038  -74.2639 O.2       10 UNK        -0.4839 
     25 CA        -70.0015   29.6263  -76.1443 C.3       9 UNK         0.0222 
     26 CB        -68.6054   30.1217  -76.5805 C.3       9 UNK        -0.1966 
     27 N         -70.1235   28.1791  -76.3485 N.am      9 UNK        -0.4218 
     28 C         -69.4593   27.1971  -75.7168 C.2       9 UNK         0.5020 
     29 O         -68.6413   27.3967  -74.8178 O.2       9 UNK        -0.5274 
     30 CA        -69.7533   25.7462  -76.1541 C.3       8 UNK         0.0270 
     31 CB        -69.9117   24.8118  -74.9399 C.3       8 UNK        -0.1976 
     32 N         -70.9676   25.6664  -76.9683 N.am      8 UNK        -0.4313 
     33 C         -71.0174   25.4865  -78.2959 C.2       8 UNK         0.5041 
     34 O         -70.0283   25.2595  -78.9931 O.2       8 UNK        -0.5577 
     35 CA        -72.3997   25.6101  -78.9721 C.3       7 UNK         0.0284 
     36 CB        -73.0070   24.2180  -79.2066 C.3       7 UNK        -0.1958 
     37 N         -73.3519   26.4316  -78.2150 N.am      7 UNK        -0.4454 
     38 C         -73.1955   27.7420  -77.9639 C.2       7 UNK         0.5089 
     39 O         -72.2852   28.4171  -78.4425 O.2       7 UNK        -0.5125 
     40 CA        -74.1418   28.3939  -76.9369 C.3       6 UNK         0.0408 
     41 CB        -75.2866   29.1343  -77.6433 C.3       6 UNK        -0.1791 
     42 N         -74.7032   27.4443  -75.9726 N.am      6 UNK        -0.4762 
     43 C         -73.9997   26.6554  -75.1467 C.2       6 UNK         0.5007 
     44 O         -72.7821   26.7635  -74.9964 O.2       6 UNK        -0.5032 
     45 CA        -74.7582   25.5060  -74.4424 C.3       5 UNK         0.0783 
     46 C46       -74.6843   25.6398  -72.8953 C.3       11 UNK        -0.0857 
     47 S47       -76.0141   24.7695  -71.9852 S.3       11 UNK        -0.2512 
     48 C48       -76.8548   26.1272  -71.0989 C.3       11 UNK         0.0225 
     49 N         -76.1186   25.2973  -74.9678 N.am      5 UNK        -0.4615 
     50 C         -76.4033   24.8404  -76.1956 C.2       4 UNK         0.5053 
     51 O         -75.5417   24.6336  -77.0518 O.2       4 UNK        -0.5105 
     52 CA        -77.8835   24.5869  -76.5126 C.3       4 UNK         0.0263 
     53 CB        -78.0934   23.7798  -77.8092 C.3       4 UNK        -0.1981 
     54 N         -78.5417   23.9109  -75.3918 N.am      4 UNK        -0.4224 
     55 C         -79.8052   24.1329  -75.0124 C.2       3 UNK         0.4895 
     56 O         -80.5475   24.9424  -75.5716 O.2       3 UNK        -0.5091 
     57 CA        -80.3411   23.3131  -73.8272 C.3       3 UNK         0.0250 
     58 CB        -79.3408   23.1721  -72.6618 C.3       3 UNK        -0.1996 
     59 N         -81.5724   23.9364  -73.3485 N.am      3 UNK        -0.4254 
     60 C         -82.6291   23.2999  -72.8337 C.2       2 UNK         0.5004 
     61 O         -82.6625   22.0845  -72.6353 O.2       2 UNK        -0.5226 
     62 CA        -83.8607   24.1520  -72.4663 C.3       2 UNK         0.0269 
     63 CB        -84.0188   24.2384  -70.9389 C.3       2 UNK        -0.1926 
     64 N         -83.8411   25.5138  -73.0130 N.am      2 UNK        -0.4687 
     65 C         -84.0266   25.8359  -74.3021 C.2       1 UNK         0.5165 
     66 O         -84.2324   25.0057  -75.1883 O.2       1 UNK        -0.5079 
     67 H67       -85.3217   29.6593  -71.6553 H         1 UNK         0.0900 
     68 H68       -86.6315   28.5516  -71.2407 H         1 UNK         0.0900 
     69 H69       -86.9210   29.8802  -72.3674 H         1 UNK         0.0900 
     70 H70       -83.8613   28.7464  -73.0920 H         1 UNK         0.2959 
     71 H71       -84.6572   27.4554  -75.5189 H         1 UNK         0.1079 
     72 H72       -82.1811   27.1396  -75.8555 H         1 UNK         0.0837 
     73 H73       -82.6637   28.7859  -75.5724 H         1 UNK         0.0837 
     74 H74       -79.9296   29.0941  -75.2522 H         1 UNK         0.0685 
     75 H75       -79.6895   27.3667  -75.3376 H         1 UNK         0.0685 
     76 H76       -78.9328   26.3263  -72.8844 H         1 UNK         0.1434 
     77 H77       -75.5996   28.5289  -71.3234 H         1 UNK         0.1329 
     78 H78       -78.0692   30.2586  -74.3624 H         1 UNK         0.1335 
     79 H79       -76.4166   31.6320  -73.1510 H         1 UNK         0.0680 
     80 H80       -75.5177   30.9530  -71.8195 H         1 UNK         0.0680 
     81 H81       -73.3248   31.3054  -71.9342 H         1 UNK         0.1032 
     82 H82       -72.5418   31.8615  -73.3702 H         1 UNK         0.1032 
     83 H83       -71.1036   30.3076  -72.2324 H         1 UNK         0.0461 
     84 H84       -72.1211   26.7072  -71.5019 H         1 UNK         0.3453 
     85 H85       -71.3361   27.2738  -72.9541 H         1 UNK         0.3453 
     86 H86       -71.8028   28.6405  -74.5277 H         1 UNK         0.2984 
     87 H87       -70.7277   30.0792  -76.8204 H         1 UNK         0.0554 
     88 H88       -68.3639   29.7904  -77.5904 H         1 UNK         0.0847 
     89 H89       -67.8219   29.7625  -75.9125 H         1 UNK         0.0847 
     90 H90       -68.5569   31.2113  -76.5808 H         1 UNK         0.0847 
     91 H91       -70.7734   27.9152  -77.0801 H         1 UNK         0.3141 
     92 H92       -68.8901   25.4087  -76.7310 H         1 UNK         0.0743 
     93 H93       -70.7264   25.1284  -74.2879 H         1 UNK         0.0784 
     94 H94       -70.1133   23.7874  -75.2535 H         1 UNK         0.0784 
     95 H95       -69.0020   24.7899  -74.3384 H         1 UNK         0.0784 
     96 H96       -71.8253   25.8836  -76.4701 H         1 UNK         0.3213 
     97 H97       -72.2470   26.0866  -79.9429 H         1 UNK         0.0855 
     98 H98       -73.1830   23.6916  -78.2675 H         1 UNK         0.0814 
     99 H99       -72.3417   23.5977  -79.8089 H         1 UNK         0.0814 
    100 H100      -73.9577   24.2827  -79.7361 H         1 UNK         0.0814 
    101 H101      -74.1322   25.9403  -77.7886 H         1 UNK         0.3105 
    102 H102      -73.5524   29.1233  -76.3794 H         1 UNK         0.0547 
    103 H103      -74.8980   29.8691  -78.3498 H         1 UNK         0.0837 
    104 H104      -75.9278   28.4511  -78.2016 H         1 UNK         0.0837 
    105 H105      -75.9084   29.6736  -76.9281 H         1 UNK         0.0837 
    106 H106      -75.7010   27.2992  -76.0120 H         1 UNK         0.3020 
    107 H107      -74.2033   24.6004  -74.6994 H         1 UNK         0.1245 
    108 H108      -74.6544   26.6837  -72.5912 H         1 UNK         0.0781 
    109 H109      -73.7340   25.2303  -72.5496 H         1 UNK         0.0781 
    110 H110      -76.2097   26.4668  -70.2868 H         1 UNK         0.0836 
    111 H111      -77.7560   25.7370  -70.6240 H         1 UNK         0.0836 
    112 H112      -76.8672   25.4555  -74.3085 H         1 UNK         0.3022 
    113 H113      -78.3259   25.5751  -76.6551 H         1 UNK         0.0747 
    114 H114      -79.1533   23.6581  -78.0329 H         1 UNK         0.0793 
    115 H115      -77.6404   24.2834  -78.6643 H         1 UNK         0.0793 
    116 H116      -77.6485   22.7865  -77.7398 H         1 UNK         0.0793 
    117 H117      -77.9826   23.2360  -74.8875 H         1 UNK         0.3047 
    118 H118      -80.5710   22.3196  -74.2179 H         1 UNK         0.0822 
    119 H119      -78.4224   22.6719  -72.9698 H         1 UNK         0.0807 
    120 H120      -79.7649   22.5751  -71.8542 H         1 UNK         0.0807 
    121 H121      -79.0679   24.1389  -72.2420 H         1 UNK         0.0807 
    122 H122      -81.6610   24.9216  -73.5628 H         1 UNK         0.2946 
    123 H123      -84.7339   23.6367  -72.8730 H         1 UNK         0.1144 
    124 H124      -84.0784   23.2439  -70.4942 H         1 UNK         0.0793 
    125 H125      -84.9307   24.7685  -70.6630 H         1 UNK         0.0793 
    126 H126      -83.1760   24.7525  -70.4749 H         1 UNK         0.0793 
    127 H127      -83.6753   26.2660  -72.3596 H         1 UNK         0.2896 
@<TRIPOS>BOND
     1    1    2 1    
     2    1   67 1    
     3    1   68 1    
     4    1   69 1    
     5    2    3 2    
     6    2    4 am   BACKBONE|DICT|INTERRES
     7    4    5 1    
     8    4   70 1    
     9    5    6 1    
    10    5   65 1    
    11    5   71 1    
    12    6    7 1    
    13    6   72 1    
    14    6   73 1    
    15    7    8 1    
    16    8    9 1    
    17    8   74 1    
    18    8   75 1    
    19    9   10 ar   
    20    9   14 ar   
    21   10   11 ar   
    22   10   76 1    
    23   11   12 ar   
    24   11   48 1    
    25   12   13 ar   
    26   12   77 1    
    27   13   14 ar   
    28   13   15 1    
    29   14   78 1    
    30   15   16 1    
    31   15   79 1    
    32   15   80 1    
    33   16   17 1    
    34   17   18 1    
    35   17   81 1    
    36   17   82 1    
    37   18   19 1    
    38   18   22 1    
    39   18   83 1    
    40   19   20 am   BACKBONE|DICT|INTERRES
    41   19   21 2    
    42   20   84 1    
    43   20   85 1    
    44   22   23 am   BACKBONE|DICT|INTERRES
    45   22   86 1    
    46   23   24 2    
    47   23   25 1    
    48   25   26 1    
    49   25   27 1    
    50   25   87 1    
    51   26   88 1    
    52   26   89 1    
    53   26   90 1    
    54   27   28 am   BACKBONE|DICT|INTERRES
    55   27   91 1    
    56   28   29 2    
    57   28   30 1    
    58   30   31 1    
    59   30   32 1    
    60   30   92 1    
    61   31   93 1    
    62   31   94 1    
    63   31   95 1    
    64   32   33 am   BACKBONE|DICT|INTERRES
    65   32   96 1    
    66   33   34 2    
    67   33   35 1    
    68   35   36 1    
    69   35   37 1    
    70   35   97 1    
    71   36   98 1    
    72   36   99 1    
    73   36  100 1    
    74   37   38 am   BACKBONE|DICT|INTERRES
    75   37  101 1    
    76   38   39 2    
    77   38   40 1    
    78   40   41 1    
    79   40   42 1    
    80   40  102 1    
    81   41  103 1    
    82   41  104 1    
    83   41  105 1    
    84   42   43 am   BACKBONE|DICT|INTERRES
    85   42  106 1    
    86   43   44 2    
    87   43   45 1    
    88   45   46 1    
    89   45   49 1    
    90   45  107 1    
    91   46   47 1    
    92   46  108 1    
    93   46  109 1    
    94   47   48 1    
    95   48  110 1    
    96   48  111 1    
    97   49   50 am   BACKBONE|DICT|INTERRES
    98   49  112 1    
    99   50   51 2    
   100   50   52 1    
   101   52   53 1    
   102   52   54 1    
   103   52  113 1    
   104   53  114 1    
   105   53  115 1    
   106   53  116 1    
   107   54   55 am   BACKBONE|DICT|INTERRES
   108   54  117 1    
   109   55   56 2    
   110   55   57 1    
   111   57   58 1    
   112   57   59 1    
   113   57  118 1    
   114   58  119 1    
   115   58  120 1    
   116   58  121 1    
   117   59   60 am   BACKBONE|DICT|INTERRES
   118   59  122 1    
   119   60   61 2    
   120   60   62 1    
   121   62   63 1    
   122   62   64 1    
   123   62  123 1    
   124   63  124 1    
   125   63  125 1    
   126   63  126 1    
   127   64   65 am   BACKBONE|DICT|INTERRES
   128   64  127 1    
   129   65   66 2    
@<TRIPOS>SUBSTRUCTURE
     1 UNK         1 GROUP             0       ****    0 ROOT    
