@<TRIPOS>MOLECULE
3R135
127   129    1
SMALL
USER_CHARGES


@<TRIPOS>ATOM
      1 CA        -86.0144   26.6908  -71.3974 C.3       0 UNK        -0.1998 
      2 C         -85.2381   27.2022  -72.6017 C.2       0 UNK         0.4909 
      3 O         -85.7380   27.1337  -73.7248 O.2       0 UNK        -0.5240 
      4 N         -84.0228   27.7193  -72.3743 N.am      1 UNK        -0.4739 
      5 CA        -83.1146   28.2252  -73.4118 C.3       1 UNK         0.0864 
      6 C6        -81.9733   29.0600  -72.7777 C.3       11 UNK        -0.0881 
      7 S7        -81.1123   30.1750  -73.9409 S.3       11 UNK        -0.2682 
      8 C8        -79.7036   29.1705  -74.5165 C.3       11 UNK         0.0289 
      9 C9        -78.6701   28.9081  -73.4296 C.ar      11 UNK        -0.0687 
     10 C10       -78.7651   27.7637  -72.6354 C.ar      11 UNK        -0.0823 
     11 C11       -77.8337   27.5109  -71.6268 C.ar      11 UNK        -0.0830 
     12 C12       -76.7721   28.3994  -71.4354 C.ar      11 UNK        -0.1021 
     13 C13       -76.6497   29.5374  -72.2395 C.ar      11 UNK        -0.0753 
     14 C14       -77.6041   29.7901  -73.2314 C.ar      11 UNK        -0.0933 
     15 C15       -75.4951   30.5025  -72.0266 C.3       11 UNK         0.0166 
     16 S16       -73.9602   29.8623  -72.7591 S.3       11 UNK        -0.2615 
     17 C17       -72.9495   31.3847  -72.7582 C.3       11 UNK        -0.0865 
     18 CA        -71.5353   31.2041  -73.3743 C.3       10 UNK         0.0862 
     19 C         -70.5205   30.5533  -72.3857 C.2       10 UNK         0.5551 
     20 N         -69.7549   29.5388  -72.7717 N.am      10 UNK        -0.7319 
     21 O         -70.4084   30.9944  -71.2444 O.2       10 UNK        -0.5018 
     22 N         -71.6161   30.5533  -74.6882 N.am      10 UNK        -0.4509 
     23 C         -70.7734   30.7285  -75.7098 C.2       10 UNK         0.4899 
     24 O         -69.8584   31.5535  -75.7173 O.2       10 UNK        -0.4839 
     25 CA        -70.9960   29.7880  -76.9095 C.3       9 UNK         0.0222 
     26 CB        -69.8616   29.8582  -77.9537 C.3       9 UNK        -0.1966 
     27 N         -71.2387   28.3996  -76.4899 N.am      9 UNK        -0.4218 
     28 C         -70.4095   27.6116  -75.7818 C.2       9 UNK         0.5020 
     29 O         -69.3105   27.9821  -75.3668 O.2       9 UNK        -0.5274 
     30 CA        -70.8758   26.1827  -75.4345 C.3       8 UNK         0.0270 
     31 CB        -71.0762   26.0437  -73.9158 C.3       8 UNK        -0.1976 
     32 N         -72.1053   25.7820  -76.1231 N.am      8 UNK        -0.4313 
     33 C         -72.1847   25.4932  -77.4315 C.2       8 UNK         0.5041 
     34 O         -71.1985   25.4118  -78.1648 O.2       8 UNK        -0.5577 
     35 CA        -73.5841   25.2950  -78.0499 C.3       7 UNK         0.0284 
     36 CB        -73.8130   23.8149  -78.3965 C.3       7 UNK        -0.1958 
     37 N         -74.7024   25.7680  -77.2279 N.am      7 UNK        -0.4454 
     38 C         -74.8900   27.0177  -76.7771 C.2       7 UNK         0.5089 
     39 O         -74.1358   27.9594  -77.0267 O.2       7 UNK        -0.5125 
     40 CA        -76.0910   27.2252  -75.8358 C.3       6 UNK         0.0408 
     41 CB        -77.3450   27.5235  -76.6693 C.3       6 UNK        -0.1791 
     42 N         -76.3314   26.0710  -74.9542 N.am      6 UNK        -0.4762 
     43 C         -75.4335   25.5983  -74.0716 C.2       6 UNK         0.5007 
     44 O         -74.3367   26.1239  -73.8837 O.2       6 UNK        -0.5032 
     45 CA        -75.7398   24.2753  -73.3449 C.3       5 UNK         0.0783 
     46 C46       -76.1990   24.4642  -71.8764 C.3       11 UNK        -0.0857 
     47 S47       -77.9880   24.7360  -71.6484 S.3       11 UNK        -0.2512 
     48 C48       -78.0137   26.3016  -70.7221 C.3       11 UNK         0.0225 
     49 N         -76.6309   23.4167  -74.1303 N.am      5 UNK        -0.4615 
     50 C         -76.2048   22.5081  -75.0162 C.2       4 UNK         0.5053 
     51 O         -75.0184   22.2528  -75.2219 O.2       4 UNK        -0.5105 
     52 CA        -77.2814   21.7650  -75.8235 C.3       4 UNK         0.0263 
     53 CB        -77.8517   20.5916  -75.0104 C.3       4 UNK        -0.1981 
     54 N         -78.3785   22.6238  -76.2768 N.am      4 UNK        -0.4224 
     55 C         -78.2461   23.6883  -77.0820 C.2       3 UNK         0.4895 
     56 O         -77.1664   24.0961  -77.5105 O.2       3 UNK        -0.5091 
     57 CA        -79.5361   24.4306  -77.4740 C.3       3 UNK         0.0250 
     58 CB        -80.0603   23.9112  -78.8221 C.3       3 UNK        -0.1996 
     59 N         -80.6059   24.3520  -76.4737 N.am      3 UNK        -0.4254 
     60 C         -80.5408   24.8829  -75.2451 C.2       2 UNK         0.5004 
     61 O         -79.5377   25.4366  -74.7924 O.2       2 UNK        -0.5226 
     62 CA        -81.7914   24.7171  -74.3629 C.3       2 UNK         0.0269 
     63 CB        -81.5538   23.6300  -73.3024 C.3       2 UNK        -0.1926 
     64 N         -82.2076   25.9548  -73.6950 N.am      2 UNK        -0.4687 
     65 C         -82.5946   27.0816  -74.3143 C.2       1 UNK         0.5165 
     66 O         -82.6078   27.2192  -75.5387 O.2       1 UNK        -0.5079 
     67 H67       -86.9595   27.2254  -71.3057 H         1 UNK         0.0900 
     68 H68       -86.2329   25.6298  -71.5154 H         1 UNK         0.0900 
     69 H69       -85.4599   26.8213  -70.4682 H         1 UNK         0.0900 
     70 H70       -83.6753   27.7565  -71.4263 H         1 UNK         0.2959 
     71 H71       -83.7009   28.8911  -74.0496 H         1 UNK         0.1079 
     72 H72       -81.2726   28.4295  -72.2356 H         1 UNK         0.0837 
     73 H73       -82.3985   29.7155  -72.0158 H         1 UNK         0.0837 
     74 H74       -79.2303   29.6892  -75.3512 H         1 UNK         0.0685 
     75 H75       -80.0707   28.2280  -74.9209 H         1 UNK         0.0685 
     76 H76       -79.5717   27.0628  -72.7963 H         1 UNK         0.1434 
     77 H77       -76.0411   28.2117  -70.6609 H         1 UNK         0.1329 
     78 H78       -77.5173   30.6719  -73.8513 H         1 UNK         0.1335 
     79 H79       -75.3434   30.6731  -70.9597 H         1 UNK         0.0680 
     80 H80       -75.7324   31.4733  -72.4647 H         1 UNK         0.0680 
     81 H81       -72.8922   31.7816  -71.7426 H         1 UNK         0.1032 
     82 H82       -73.4872   32.1396  -73.3340 H         1 UNK         0.1032 
     83 H83       -71.1443   32.2102  -73.5373 H         1 UNK         0.0461 
     84 H84       -69.7838   29.1863  -73.7200 H         1 UNK         0.3453 
     85 H85       -69.1020   29.1444  -72.1139 H         1 UNK         0.3453 
     86 H86       -72.3295   29.8420  -74.7655 H         1 UNK         0.2984 
     87 H87       -71.9131   30.1234  -77.3960 H         1 UNK         0.0554 
     88 H88       -69.7609   30.8680  -78.3533 H         1 UNK         0.0847 
     89 H89       -70.0569   29.1949  -78.7963 H         1 UNK         0.0847 
     90 H90       -68.8974   29.5815  -77.5258 H         1 UNK         0.0847 
     91 H91       -72.1545   28.0324  -76.7346 H         1 UNK         0.3141 
     92 H92       -70.0795   25.4988  -75.7358 H         1 UNK         0.0743 
     93 H93       -71.4296   25.0481  -73.6470 H         1 UNK         0.0784 
     94 H94       -70.1393   26.2096  -73.3824 H         1 UNK         0.0784 
     95 H95       -71.7949   26.7711  -73.5357 H         1 UNK         0.0784 
     96 H96       -72.9608   25.8373  -75.5815 H         1 UNK         0.3213 
     97 H97       -73.6032   25.8702  -78.9777 H         1 UNK         0.0855 
     98 H98       -73.8282   23.1910  -77.5024 H         1 UNK         0.0814 
     99 H99       -73.0220   23.4362  -79.0454 H         1 UNK         0.0814 
    100 H100      -74.7574   23.6704  -78.9219 H         1 UNK         0.0814 
    101 H101      -75.4255   25.0855  -77.0206 H         1 UNK         0.3105 
    102 H102      -75.8854   28.0845  -75.1938 H         1 UNK         0.0547 
    103 H103      -77.4349   26.8496  -77.5211 H         1 UNK         0.0837 
    104 H104      -77.3104   28.5384  -77.0664 H         1 UNK         0.0837 
    105 H105      -78.2528   27.4298  -76.0793 H         1 UNK         0.0837 
    106 H106      -77.2321   25.6147  -75.0297 H         1 UNK         0.3020 
    107 H107      -74.7685   23.7786  -73.2767 H         1 UNK         0.1245 
    108 H108      -75.6302   25.2613  -71.3934 H         1 UNK         0.0781 
    109 H109      -75.9531   23.5610  -71.3159 H         1 UNK         0.0781 
    110 H110      -77.2601   26.2775  -69.9335 H         1 UNK         0.0836 
    111 H111      -78.9767   26.3883  -70.2171 H         1 UNK         0.0836 
    112 H112      -77.6218   23.5785  -74.0140 H         1 UNK         0.3022 
    113 H113      -76.7974   21.3591  -76.7145 H         1 UNK         0.0747 
    114 H114      -78.5402   19.9924  -75.6065 H         1 UNK         0.0793 
    115 H115      -77.0548   19.9264  -74.6744 H         1 UNK         0.0793 
    116 H116      -78.3854   20.9347  -74.1230 H         1 UNK         0.0793 
    117 H117      -79.3085   22.3700  -75.9785 H         1 UNK         0.3047 
    118 H118      -79.2847   25.4846  -77.5961 H         1 UNK         0.0822 
    119 H119      -80.9169   24.4913  -79.1660 H         1 UNK         0.0807 
    120 H120      -80.3630   22.8649  -78.7635 H         1 UNK         0.0807 
    121 H121      -79.2921   23.9851  -79.5936 H         1 UNK         0.0807 
    122 H122      -81.4618   23.9031  -76.7674 H         1 UNK         0.2946 
    123 H123      -82.6234   24.4009  -74.9961 H         1 UNK         0.1144 
    124 H124      -82.4565   23.4349  -72.7231 H         1 UNK         0.0793 
    125 H125      -80.7635   23.9137  -72.6066 H         1 UNK         0.0793 
    126 H126      -81.2575   22.6873  -73.7642 H         1 UNK         0.0793 
    127 H127      -82.2382   25.9314  -72.6867 H         1 UNK         0.2896 
@<TRIPOS>BOND
     1    1    2 1    
     2    1   67 1    
     3    1   68 1    
     4    1   69 1    
     5    2    3 2    
     6    2    4 am   BACKBONE|DICT|INTERRES
     7    4    5 1    
     8    4   70 1    
     9    5    6 1    
    10    5   65 1    
    11    5   71 1    
    12    6    7 1    
    13    6   72 1    
    14    6   73 1    
    15    7    8 1    
    16    8    9 1    
    17    8   74 1    
    18    8   75 1    
    19    9   10 ar   
    20    9   14 ar   
    21   10   11 ar   
    22   10   76 1    
    23   11   12 ar   
    24   11   48 1    
    25   12   13 ar   
    26   12   77 1    
    27   13   14 ar   
    28   13   15 1    
    29   14   78 1    
    30   15   16 1    
    31   15   79 1    
    32   15   80 1    
    33   16   17 1    
    34   17   18 1    
    35   17   81 1    
    36   17   82 1    
    37   18   19 1    
    38   18   22 1    
    39   18   83 1    
    40   19   20 am   BACKBONE|DICT|INTERRES
    41   19   21 2    
    42   20   84 1    
    43   20   85 1    
    44   22   23 am   BACKBONE|DICT|INTERRES
    45   22   86 1    
    46   23   24 2    
    47   23   25 1    
    48   25   26 1    
    49   25   27 1    
    50   25   87 1    
    51   26   88 1    
    52   26   89 1    
    53   26   90 1    
    54   27   28 am   BACKBONE|DICT|INTERRES
    55   27   91 1    
    56   28   29 2    
    57   28   30 1    
    58   30   31 1    
    59   30   32 1    
    60   30   92 1    
    61   31   93 1    
    62   31   94 1    
    63   31   95 1    
    64   32   33 am   BACKBONE|DICT|INTERRES
    65   32   96 1    
    66   33   34 2    
    67   33   35 1    
    68   35   36 1    
    69   35   37 1    
    70   35   97 1    
    71   36   98 1    
    72   36   99 1    
    73   36  100 1    
    74   37   38 am   BACKBONE|DICT|INTERRES
    75   37  101 1    
    76   38   39 2    
    77   38   40 1    
    78   40   41 1    
    79   40   42 1    
    80   40  102 1    
    81   41  103 1    
    82   41  104 1    
    83   41  105 1    
    84   42   43 am   BACKBONE|DICT|INTERRES
    85   42  106 1    
    86   43   44 2    
    87   43   45 1    
    88   45   46 1    
    89   45   49 1    
    90   45  107 1    
    91   46   47 1    
    92   46  108 1    
    93   46  109 1    
    94   47   48 1    
    95   48  110 1    
    96   48  111 1    
    97   49   50 am   BACKBONE|DICT|INTERRES
    98   49  112 1    
    99   50   51 2    
   100   50   52 1    
   101   52   53 1    
   102   52   54 1    
   103   52  113 1    
   104   53  114 1    
   105   53  115 1    
   106   53  116 1    
   107   54   55 am   BACKBONE|DICT|INTERRES
   108   54  117 1    
   109   55   56 2    
   110   55   57 1    
   111   57   58 1    
   112   57   59 1    
   113   57  118 1    
   114   58  119 1    
   115   58  120 1    
   116   58  121 1    
   117   59   60 am   BACKBONE|DICT|INTERRES
   118   59  122 1    
   119   60   61 2    
   120   60   62 1    
   121   62   63 1    
   122   62   64 1    
   123   62  123 1    
   124   63  124 1    
   125   63  125 1    
   126   63  126 1    
   127   64   65 am   BACKBONE|DICT|INTERRES
   128   64  127 1    
   129   65   66 2    
@<TRIPOS>SUBSTRUCTURE
     1 UNK         1 GROUP             0       ****    0 ROOT    
