@<TRIPOS>MOLECULE
3R135
127   129    1
SMALL
USER_CHARGES


@<TRIPOS>ATOM
      1 CA        -83.3253   25.9714  -76.9655 C.3       0 UNK        -0.1998 
      2 C         -82.2880   26.8949  -76.3462 C.2       0 UNK         0.4909 
      3 O         -81.4587   27.4519  -77.0661 O.2       0 UNK        -0.5240 
      4 N         -82.3157   27.0515  -75.0152 N.am      1 UNK        -0.4739 
      5 CA        -81.3838   27.8802  -74.2406 C.3       1 UNK         0.0864 
      6 C6        -81.8010   27.9565  -72.7506 C.3       11 UNK        -0.0881 
      7 S7        -81.3263   29.5438  -71.9935 S.3       11 UNK        -0.2682 
      8 C8        -80.6705   29.0125  -70.3804 C.3       11 UNK         0.0289 
      9 C9        -79.1924   28.6522  -70.4399 C.ar      11 UNK        -0.0687 
     10 C10       -78.7642   27.3393  -70.2184 C.ar      11 UNK        -0.0823 
     11 C11       -77.3984   27.0318  -70.1895 C.ar      11 UNK        -0.0830 
     12 C12       -76.4608   28.0506  -70.3953 C.ar      11 UNK        -0.1021 
     13 C13       -76.8787   29.3616  -70.6422 C.ar      11 UNK        -0.0753 
     14 C14       -78.2445   29.6550  -70.6589 C.ar      11 UNK        -0.0933 
     15 C15       -75.8650   30.4710  -70.8764 C.3       11 UNK         0.0166 
     16 S16       -75.3167   30.5064  -72.6109 S.3       11 UNK        -0.2615 
     17 C17       -73.8309   29.4434  -72.5660 C.3       11 UNK        -0.0865 
     18 CA        -72.5902   30.1748  -73.1448 C.3       10 UNK         0.0862 
     19 C         -71.2806   29.3807  -72.8853 C.2       10 UNK         0.5551 
     20 N         -70.7929   29.3904  -71.6514 N.am      10 UNK        -0.7319 
     21 O         -70.7142   28.7404  -73.7687 O.2       10 UNK        -0.5018 
     22 N         -72.7804   30.5020  -74.5651 N.am      10 UNK        -0.4509 
     23 C         -72.1539   31.4939  -75.2114 C.2       10 UNK         0.4899 
     24 O         -71.3510   32.2563  -74.6699 O.2       10 UNK        -0.4839 
     25 CA        -72.5184   31.7058  -76.6975 C.3       9 UNK         0.0222 
     26 CB        -71.4269   32.4622  -77.4864 C.3       9 UNK        -0.1966 
     27 N         -72.9232   30.4735  -77.3857 N.am      9 UNK        -0.4218 
     28 C         -72.1612   29.4002  -77.6382 C.2       9 UNK         0.5020 
     29 O         -70.9522   29.3248  -77.4082 O.2       9 UNK        -0.5274 
     30 CA        -72.8909   28.1852  -78.2370 C.3       8 UNK         0.0270 
     31 CB        -72.3608   27.8569  -79.6428 C.3       8 UNK        -0.1976 
     32 N         -72.7591   27.0085  -77.3754 N.am      8 UNK        -0.4313 
     33 C         -73.1961   26.9398  -76.1112 C.2       8 UNK         0.5041 
     34 O         -73.8222   27.8424  -75.5541 O.2       8 UNK        -0.5577 
     35 CA        -72.9406   25.6198  -75.3805 C.3       7 UNK         0.0284 
     36 CB        -72.9318   25.7718  -73.8477 C.3       7 UNK        -0.1958 
     37 N         -74.0033   24.6993  -75.7568 N.am      7 UNK        -0.4454 
     38 C         -73.8541   23.3919  -75.9940 C.2       7 UNK         0.5089 
     39 O         -72.7670   22.8114  -76.0028 O.2       7 UNK        -0.5125 
     40 CA        -75.1604   22.6109  -76.2286 C.3       6 UNK         0.0408 
     41 CB        -74.9676   21.0806  -76.2681 C.3       6 UNK        -0.1791 
     42 N         -76.1859   22.9997  -75.2550 N.am      6 UNK        -0.4762 
     43 C         -76.1550   22.8536  -73.9193 C.2       6 UNK         0.5007 
     44 O         -75.2918   22.2185  -73.3127 O.2       6 UNK        -0.5032 
     45 CA        -77.2867   23.5490  -73.1281 C.3       5 UNK         0.0783 
     46 C46       -76.8486   24.9590  -72.6547 C.3       11 UNK        -0.0857 
     47 S47       -75.8035   24.9401  -71.1629 S.3       11 UNK        -0.2512 
     48 C48       -76.9422   25.6038  -69.9010 C.3       11 UNK         0.0225 
     49 N         -78.5250   23.6482  -73.9040 N.am      5 UNK        -0.4615 
     50 C         -79.2669   22.6285  -74.3539 C.2       4 UNK         0.5053 
     51 O         -79.0709   21.4493  -74.0611 O.2       4 UNK        -0.5105 
     52 CA        -80.3897   22.9971  -75.3367 C.3       4 UNK         0.0263 
     53 CB        -81.6679   23.4004  -74.5838 C.3       4 UNK        -0.1981 
     54 N         -79.9741   24.0801  -76.2360 N.am      4 UNK        -0.4224 
     55 C         -79.1597   23.9144  -77.2897 C.2       3 UNK         0.4895 
     56 O         -78.7478   22.8181  -77.6673 O.2       3 UNK        -0.5091 
     57 CA        -78.7023   25.1773  -78.0397 C.3       3 UNK         0.0250 
     58 CB        -79.6402   25.4753  -79.2201 C.3       3 UNK        -0.1996 
     59 N         -78.6080   26.3542  -77.1713 N.am      3 UNK        -0.4254 
     60 C         -77.6040   26.5687  -76.3062 C.2       2 UNK         0.5004 
     61 O         -76.6450   25.8067  -76.1764 O.2       2 UNK        -0.5226 
     62 CA        -77.7013   27.8166  -75.4053 C.3       2 UNK         0.0269 
     63 CB        -77.0416   29.0231  -76.0919 C.3       2 UNK        -0.1926 
     64 N         -79.0726   28.1780  -75.0278 N.am      2 UNK        -0.4687 
     65 C         -79.9404   27.3678  -74.4076 C.2       1 UNK         0.5165 
     66 O         -79.6666   26.2223  -74.0470 O.2       1 UNK        -0.5079 
     67 H67       -83.8958   26.5059  -77.7244 H         1 UNK         0.0900 
     68 H68       -84.0253   25.5880  -76.2235 H         1 UNK         0.0900 
     69 H69       -82.8356   25.1229  -77.4423 H         1 UNK         0.0900 
     70 H70       -83.0089   26.5537  -74.4753 H         1 UNK         0.2959 
     71 H71       -81.4479   28.8823  -74.6709 H         1 UNK         0.1079 
     72 H72       -81.4058   27.1162  -72.1755 H         1 UNK         0.0837 
     73 H73       -82.8861   27.8898  -72.6575 H         1 UNK         0.0837 
     74 H74       -80.7992   29.8313  -69.6711 H         1 UNK         0.0685 
     75 H75       -81.2656   28.1844  -69.9921 H         1 UNK         0.0685 
     76 H76       -79.4948   26.5613  -70.0443 H         1 UNK         0.1434 
     77 H77       -75.4051   27.8190  -70.3698 H         1 UNK         0.1329 
     78 H78       -78.5744   30.6701  -70.8338 H         1 UNK         0.1335 
     79 H79       -76.3117   31.4377  -70.6393 H         1 UNK         0.0680 
     80 H80       -75.0158   30.3640  -70.2004 H         1 UNK         0.0680 
     81 H81       -74.0421   28.5300  -73.1208 H         1 UNK         0.1032 
     82 H82       -73.6414   29.1248  -71.5403 H         1 UNK         0.1032 
     83 H83       -72.4891   31.1185  -72.6042 H         1 UNK         0.0461 
     84 H84       -71.2388   29.9154  -70.9152 H         1 UNK         0.3453 
     85 H85       -69.9483   28.8759  -71.4566 H         1 UNK         0.3453 
     86 H86       -73.3525   29.8462  -75.0857 H         1 UNK         0.2984 
     87 H87       -73.4054   32.3407  -76.6907 H         1 UNK         0.0554 
     88 H88       -71.7130   32.6012  -78.5288 H         1 UNK         0.0847 
     89 H89       -70.4724   31.9357  -77.4668 H         1 UNK         0.0847 
     90 H90       -71.2563   33.4534  -77.0647 H         1 UNK         0.0847 
     91 H91       -73.9070   30.4123  -77.6094 H         1 UNK         0.3141 
     92 H92       -73.9560   28.4118  -78.3208 H         1 UNK         0.0743 
     93 H93       -72.9127   27.0318  -80.0938 H         1 UNK         0.0784 
     94 H94       -72.4634   28.7158  -80.3075 H         1 UNK         0.0784 
     95 H95       -71.3045   27.5851  -79.6235 H         1 UNK         0.0784 
     96 H96       -72.2570   26.2207  -77.7581 H         1 UNK         0.3213 
     97 H97       -71.9673   25.2384  -75.6969 H         1 UNK         0.0855 
     98 H98       -72.1620   26.4739  -73.5297 H         1 UNK         0.0814 
     99 H99       -72.7270   24.8201  -73.3573 H         1 UNK         0.0814 
    100 H100      -73.8877   26.1370  -73.4718 H         1 UNK         0.0814 
    101 H101      -74.9348   25.1079  -75.8340 H         1 UNK         0.3105 
    102 H102      -75.5352   22.9218  -77.2049 H         1 UNK         0.0547 
    103 H103      -74.3019   20.7949  -77.0831 H         1 UNK         0.0837 
    104 H104      -74.5295   20.6992  -75.3456 H         1 UNK         0.0837 
    105 H105      -75.9155   20.5669  -76.4279 H         1 UNK         0.0837 
    106 H106      -76.9235   23.5828  -75.6280 H         1 UNK         0.3020 
    107 H107      -77.5063   22.9296  -72.2556 H         1 UNK         0.1245 
    108 H108      -77.7268   25.5666  -72.4378 H         1 UNK         0.0781 
    109 H109      -76.3197   25.4969  -73.4432 H         1 UNK         0.0781 
    110 H110      -76.4403   25.5861  -68.9328 H         1 UNK         0.0836 
    111 H111      -77.7970   24.9310  -69.8150 H         1 UNK         0.0836 
    112 H112      -78.8387   24.5933  -74.1147 H         1 UNK         0.3022 
    113 H113      -80.6149   22.1114  -75.9350 H         1 UNK         0.0747 
    114 H114      -82.4871   23.6009  -75.2735 H         1 UNK         0.0793 
    115 H115      -81.9956   22.5986  -73.9207 H         1 UNK         0.0793 
    116 H116      -81.5182   24.2878  -73.9683 H         1 UNK         0.0793 
    117 H117      -80.2107   25.0210  -75.9536 H         1 UNK         0.3047 
    118 H118      -77.7090   24.9739  -78.4466 H         1 UNK         0.0822 
    119 H119      -79.3058   26.3471  -79.7826 H         1 UNK         0.0807 
    120 H120      -80.6632   25.6600  -78.8923 H         1 UNK         0.0807 
    121 H121      -79.6697   24.6344  -79.9144 H         1 UNK         0.0807 
    122 H122      -79.3863   27.0053  -77.1954 H         1 UNK         0.2946 
    123 H123      -77.1485   27.5987  -74.4886 H         1 UNK         0.1144 
    124 H124      -77.6125   29.3582  -76.9584 H         1 UNK         0.0793 
    125 H125      -76.0399   28.7768  -76.4427 H         1 UNK         0.0793 
    126 H126      -76.9430   29.8634  -75.4043 H         1 UNK         0.0793 
    127 H127      -79.3871   29.0940  -75.3141 H         1 UNK         0.2896 
@<TRIPOS>BOND
     1    1    2 1    
     2    1   67 1    
     3    1   68 1    
     4    1   69 1    
     5    2    3 2    
     6    2    4 am   BACKBONE|DICT|INTERRES
     7    4    5 1    
     8    4   70 1    
     9    5    6 1    
    10    5   65 1    
    11    5   71 1    
    12    6    7 1    
    13    6   72 1    
    14    6   73 1    
    15    7    8 1    
    16    8    9 1    
    17    8   74 1    
    18    8   75 1    
    19    9   10 ar   
    20    9   14 ar   
    21   10   11 ar   
    22   10   76 1    
    23   11   12 ar   
    24   11   48 1    
    25   12   13 ar   
    26   12   77 1    
    27   13   14 ar   
    28   13   15 1    
    29   14   78 1    
    30   15   16 1    
    31   15   79 1    
    32   15   80 1    
    33   16   17 1    
    34   17   18 1    
    35   17   81 1    
    36   17   82 1    
    37   18   19 1    
    38   18   22 1    
    39   18   83 1    
    40   19   20 am   BACKBONE|DICT|INTERRES
    41   19   21 2    
    42   20   84 1    
    43   20   85 1    
    44   22   23 am   BACKBONE|DICT|INTERRES
    45   22   86 1    
    46   23   24 2    
    47   23   25 1    
    48   25   26 1    
    49   25   27 1    
    50   25   87 1    
    51   26   88 1    
    52   26   89 1    
    53   26   90 1    
    54   27   28 am   BACKBONE|DICT|INTERRES
    55   27   91 1    
    56   28   29 2    
    57   28   30 1    
    58   30   31 1    
    59   30   32 1    
    60   30   92 1    
    61   31   93 1    
    62   31   94 1    
    63   31   95 1    
    64   32   33 am   BACKBONE|DICT|INTERRES
    65   32   96 1    
    66   33   34 2    
    67   33   35 1    
    68   35   36 1    
    69   35   37 1    
    70   35   97 1    
    71   36   98 1    
    72   36   99 1    
    73   36  100 1    
    74   37   38 am   BACKBONE|DICT|INTERRES
    75   37  101 1    
    76   38   39 2    
    77   38   40 1    
    78   40   41 1    
    79   40   42 1    
    80   40  102 1    
    81   41  103 1    
    82   41  104 1    
    83   41  105 1    
    84   42   43 am   BACKBONE|DICT|INTERRES
    85   42  106 1    
    86   43   44 2    
    87   43   45 1    
    88   45   46 1    
    89   45   49 1    
    90   45  107 1    
    91   46   47 1    
    92   46  108 1    
    93   46  109 1    
    94   47   48 1    
    95   48  110 1    
    96   48  111 1    
    97   49   50 am   BACKBONE|DICT|INTERRES
    98   49  112 1    
    99   50   51 2    
   100   50   52 1    
   101   52   53 1    
   102   52   54 1    
   103   52  113 1    
   104   53  114 1    
   105   53  115 1    
   106   53  116 1    
   107   54   55 am   BACKBONE|DICT|INTERRES
   108   54  117 1    
   109   55   56 2    
   110   55   57 1    
   111   57   58 1    
   112   57   59 1    
   113   57  118 1    
   114   58  119 1    
   115   58  120 1    
   116   58  121 1    
   117   59   60 am   BACKBONE|DICT|INTERRES
   118   59  122 1    
   119   60   61 2    
   120   60   62 1    
   121   62   63 1    
   122   62   64 1    
   123   62  123 1    
   124   63  124 1    
   125   63  125 1    
   126   63  126 1    
   127   64   65 am   BACKBONE|DICT|INTERRES
   128   64  127 1    
   129   65   66 2    
@<TRIPOS>SUBSTRUCTURE
     1 UNK         1 GROUP             0       ****    0 ROOT    
