@<TRIPOS>MOLECULE
3R135
127   129    1
SMALL
USER_CHARGES


@<TRIPOS>ATOM
      1 CA        -85.0995   26.0798  -71.8322 C.3       0 UNK        -0.1998 
      2 C         -83.6973   25.6577  -72.2456 C.2       0 UNK         0.4909 
      3 O         -83.4289   24.4600  -72.3373 O.2       0 UNK        -0.5240 
      4 N         -82.8150   26.6380  -72.4899 N.am      1 UNK        -0.4739 
      5 CA        -81.4152   26.4885  -72.9137 C.3       1 UNK         0.0864 
      6 C6        -80.4977   25.8226  -71.8477 C.3       11 UNK        -0.0881 
      7 S7        -80.4832   26.6980  -70.2436 S.3       11 UNK        -0.2682 
      8 C8        -78.6901   26.8253  -69.8863 C.3       11 UNK         0.0289 
      9 C9        -77.9464   27.9875  -70.5533 C.ar      11 UNK        -0.0687 
     10 C10       -78.4974   28.7397  -71.5967 C.ar      11 UNK        -0.0823 
     11 C11       -77.7863   29.7869  -72.1838 C.ar      11 UNK        -0.0830 
     12 C12       -76.5192   30.1141  -71.6987 C.ar      11 UNK        -0.1021 
     13 C13       -75.9489   29.3805  -70.6549 C.ar      11 UNK        -0.0753 
     14 C14       -76.6632   28.3130  -70.0977 C.ar      11 UNK        -0.0933 
     15 C15       -74.5787   29.7578  -70.1063 C.3       11 UNK         0.0166 
     16 S16       -73.2403   29.4081  -71.2899 S.3       11 UNK        -0.2615 
     17 C17       -72.8998   31.0776  -71.9568 C.3       11 UNK        -0.0865 
     18 CA        -71.7750   31.1074  -73.0243 C.3       10 UNK         0.0862 
     19 C         -70.3664   30.8609  -72.4026 C.2       10 UNK         0.5551 
     20 N         -69.6497   29.7996  -72.7555 N.am      10 UNK        -0.7319 
     21 O         -69.9108   31.6625  -71.5904 O.2       10 UNK        -0.5018 
     22 N         -72.1111   30.2535  -74.1711 N.am      10 UNK        -0.4509 
     23 C         -71.5430   30.3200  -75.3814 C.2       10 UNK         0.4899 
     24 O         -70.7621   31.2108  -75.7202 O.2       10 UNK        -0.4839 
     25 CA        -71.9047   29.1947  -76.3734 C.3       9 UNK         0.0222 
     26 CB        -70.8048   28.9558  -77.4284 C.3       9 UNK        -0.1966 
     27 N         -72.2733   27.9298  -75.7226 N.am      9 UNK        -0.4218 
     28 C         -71.5276   27.1966  -74.8802 C.2       9 UNK         0.5020 
     29 O         -70.3971   27.5131  -74.5060 O.2       9 UNK        -0.5274 
     30 CA        -72.1581   25.9028  -74.3410 C.3       8 UNK         0.0270 
     31 CB        -72.9983   26.1962  -73.0887 C.3       8 UNK        -0.1976 
     32 N         -72.9765   25.2060  -75.3371 N.am      8 UNK        -0.4313 
     33 C         -72.4710   24.5665  -76.4027 C.2       8 UNK         0.5041 
     34 O         -71.2650   24.4730  -76.6368 O.2       8 UNK        -0.5577 
     35 CA        -73.4700   23.9131  -77.3710 C.3       7 UNK         0.0284 
     36 CB        -73.9700   22.5731  -76.8083 C.3       7 UNK        -0.1958 
     37 N         -74.6080   24.7778  -77.6893 N.am      7 UNK        -0.4454 
     38 C         -74.5252   25.9117  -78.4005 C.2       7 UNK         0.5089 
     39 O         -73.4838   26.3319  -78.9051 O.2       7 UNK        -0.5125 
     40 CA        -75.8191   26.7313  -78.5608 C.3       6 UNK         0.0408 
     41 CB        -76.6844   26.1716  -79.7003 C.3       6 UNK        -0.1791 
     42 N         -76.6132   26.8109  -77.3320 N.am      6 UNK        -0.4762 
     43 C         -76.1852   27.3537  -76.1813 C.2       6 UNK         0.5007 
     44 O         -75.0689   27.8489  -76.0272 O.2       6 UNK        -0.5032 
     45 CA        -77.1496   27.2678  -74.9825 C.3       5 UNK         0.0783 
     46 C46       -78.2932   28.3108  -75.0876 C.3       11 UNK        -0.0857 
     47 S47       -77.7078   30.0370  -74.9405 S.3       11 UNK        -0.2512 
     48 C48       -78.3929   30.5668  -73.3393 C.3       11 UNK         0.0225 
     49 N         -77.6527   25.8955  -74.8399 N.am      5 UNK        -0.4615 
     50 C         -76.8800   24.8369  -74.5469 C.2       4 UNK         0.5053 
     51 O         -75.6854   24.9209  -74.2674 O.2       4 UNK        -0.5105 
     52 CA        -77.5179   23.4425  -74.6493 C.3       4 UNK         0.0263 
     53 CB        -78.0999   22.9891  -73.3021 C.3       4 UNK        -0.1981 
     54 N         -78.5370   23.3746  -75.6999 N.am      4 UNK        -0.4224 
     55 C         -78.2413   23.3546  -77.0088 C.2       3 UNK         0.4895 
     56 O         -77.0902   23.3538  -77.4420 O.2       3 UNK        -0.5091 
     57 CA        -79.4064   23.3745  -78.0131 C.3       3 UNK         0.0250 
     58 CB        -79.8295   21.9414  -78.3714 C.3       3 UNK        -0.1996 
     59 N         -80.5748   24.1276  -77.5549 N.am      3 UNK        -0.4254 
     60 C         -80.5839   25.4345  -77.2586 C.2       2 UNK         0.5004 
     61 O         -79.5907   26.1590  -77.3483 O.2       2 UNK        -0.5226 
     62 CA        -81.9065   26.0278  -76.7272 C.3       2 UNK         0.0269 
     63 CB        -83.1225   25.0844  -76.8740 C.3       2 UNK        -0.1926 
     64 N         -81.8069   26.4838  -75.3326 N.am      2 UNK        -0.4687 
     65 C         -81.3228   25.7921  -74.2882 C.2       1 UNK         0.5165 
     66 O         -80.8370   24.6632  -74.3798 O.2       1 UNK        -0.5079 
     67 H67       -85.8308   25.7004  -72.5454 H         1 UNK         0.0900 
     68 H68       -85.3386   25.6733  -70.8499 H         1 UNK         0.0900 
     69 H69       -85.2035   27.1636  -71.7843 H         1 UNK         0.0900 
     70 H70       -83.1247   27.5944  -72.3850 H         1 UNK         0.2959 
     71 H71       -81.0525   27.5020  -73.0760 H         1 UNK         0.1079 
     72 H72       -80.8013   24.7900  -71.6665 H         1 UNK         0.0837 
     73 H73       -79.4744   25.7765  -72.2242 H         1 UNK         0.0837 
     74 H74       -78.5841   26.9257  -68.8051 H         1 UNK         0.0685 
     75 H75       -78.2013   25.8871  -70.1528 H         1 UNK         0.0685 
     76 H76       -79.4859   28.5233  -71.9612 H         1 UNK         0.1434 
     77 H77       -75.9789   30.9382  -72.1406 H         1 UNK         0.1329 
     78 H78       -76.2252   27.7418  -69.2903 H         1 UNK         0.1335 
     79 H79       -74.3731   29.2049  -69.1884 H         1 UNK         0.0680 
     80 H80       -74.5741   30.8126  -69.8280 H         1 UNK         0.0680 
     81 H81       -72.6574   31.7482  -71.1299 H         1 UNK         0.1032 
     82 H82       -73.8145   31.4746  -72.3960 H         1 UNK         0.1032 
     83 H83       -71.7392   32.1302  -73.4046 H         1 UNK         0.0461 
     84 H84       -70.0092   29.1185  -73.4168 H         1 UNK         0.3453 
     85 H85       -68.7400   29.6634  -72.3453 H         1 UNK         0.3453 
     86 H86       -72.7307   29.4817  -73.9725 H         1 UNK         0.2984 
     87 H87       -72.7992   29.5315  -76.8990 H         1 UNK         0.0554 
     88 H88       -70.6203   29.8558  -78.0160 H         1 UNK         0.0847 
     89 H89       -71.0919   28.1684  -78.1258 H         1 UNK         0.0847 
     90 H90       -69.8593   28.6676  -76.9677 H         1 UNK         0.0847 
     91 H91       -73.2307   27.6295  -75.9000 H         1 UNK         0.3141 
     92 H92       -71.3434   25.2365  -74.0493 H         1 UNK         0.0743 
     93 H93       -73.8359   26.8604  -73.3075 H         1 UNK         0.0784 
     94 H94       -73.4029   25.2800  -72.6584 H         1 UNK         0.0784 
     95 H95       -72.3924   26.6737  -72.3179 H         1 UNK         0.0784 
     96 H96       -73.9806   25.1933  -75.1751 H         1 UNK         0.3213 
     97 H97       -72.9397   23.7086  -78.3037 H         1 UNK         0.0855 
     98 H98       -74.5256   22.7073  -75.8802 H         1 UNK         0.0814 
     99 H99       -73.1352   21.9042  -76.5948 H         1 UNK         0.0814 
    100 H100      -74.6206   22.0621  -77.5182 H         1 UNK         0.0814 
    101 H101      -75.5254   24.4561  -77.3912 H         1 UNK         0.3105 
    102 H102      -75.5320   27.7510  -78.8258 H         1 UNK         0.0547 
    103 H103      -76.1321   26.1664  -80.6408 H         1 UNK         0.0837 
    104 H104      -76.9995   25.1470  -79.5040 H         1 UNK         0.0837 
    105 H105      -77.5800   26.7741  -79.8532 H         1 UNK         0.0837 
    106 H106      -77.5593   26.4429  -77.3689 H         1 UNK         0.3020 
    107 H107      -76.5708   27.4925  -74.0825 H         1 UNK         0.1245 
    108 H108      -79.0397   28.1223  -74.3184 H         1 UNK         0.0781 
    109 H109      -78.8235   28.2195  -76.0359 H         1 UNK         0.0781 
    110 H110      -79.4790   30.4637  -73.3554 H         1 UNK         0.0836 
    111 H111      -78.1923   31.6308  -73.2048 H         1 UNK         0.0836 
    112 H112      -78.6042   25.7256  -75.1333 H         1 UNK         0.3022 
    113 H113      -76.7218   22.7411  -74.9067 H         1 UNK         0.0747 
    114 H114      -78.4643   21.9632  -73.3558 H         1 UNK         0.0793 
    115 H115      -77.3404   23.0222  -72.5196 H         1 UNK         0.0793 
    116 H116      -78.9263   23.6177  -72.9783 H         1 UNK         0.0793 
    117 H117      -79.5053   23.4555  -75.4058 H         1 UNK         0.3047 
    118 H118      -79.0432   23.8588  -78.9218 H         1 UNK         0.0822 
    119 H119      -80.5868   21.9345  -79.1556 H         1 UNK         0.0807 
    120 H120      -80.2333   21.4110  -77.5080 H         1 UNK         0.0807 
    121 H121      -78.9797   21.3648  -78.7398 H         1 UNK         0.0807 
    122 H122      -81.4283   23.6047  -77.4226 H         1 UNK         0.2946 
    123 H123      -82.0980   26.9126  -77.3368 H         1 UNK         0.1144 
    124 H124      -84.0430   25.5912  -76.5837 H         1 UNK         0.0793 
    125 H125      -83.0325   24.1945  -76.2494 H         1 UNK         0.0793 
    126 H126      -83.2544   24.7608  -77.9076 H         1 UNK         0.0793 
    127 H127      -82.1734   27.4093  -75.1577 H         1 UNK         0.2896 
@<TRIPOS>BOND
     1    1    2 1    
     2    1   67 1    
     3    1   68 1    
     4    1   69 1    
     5    2    3 2    
     6    2    4 am   BACKBONE|DICT|INTERRES
     7    4    5 1    
     8    4   70 1    
     9    5    6 1    
    10    5   65 1    
    11    5   71 1    
    12    6    7 1    
    13    6   72 1    
    14    6   73 1    
    15    7    8 1    
    16    8    9 1    
    17    8   74 1    
    18    8   75 1    
    19    9   10 ar   
    20    9   14 ar   
    21   10   11 ar   
    22   10   76 1    
    23   11   12 ar   
    24   11   48 1    
    25   12   13 ar   
    26   12   77 1    
    27   13   14 ar   
    28   13   15 1    
    29   14   78 1    
    30   15   16 1    
    31   15   79 1    
    32   15   80 1    
    33   16   17 1    
    34   17   18 1    
    35   17   81 1    
    36   17   82 1    
    37   18   19 1    
    38   18   22 1    
    39   18   83 1    
    40   19   20 am   BACKBONE|DICT|INTERRES
    41   19   21 2    
    42   20   84 1    
    43   20   85 1    
    44   22   23 am   BACKBONE|DICT|INTERRES
    45   22   86 1    
    46   23   24 2    
    47   23   25 1    
    48   25   26 1    
    49   25   27 1    
    50   25   87 1    
    51   26   88 1    
    52   26   89 1    
    53   26   90 1    
    54   27   28 am   BACKBONE|DICT|INTERRES
    55   27   91 1    
    56   28   29 2    
    57   28   30 1    
    58   30   31 1    
    59   30   32 1    
    60   30   92 1    
    61   31   93 1    
    62   31   94 1    
    63   31   95 1    
    64   32   33 am   BACKBONE|DICT|INTERRES
    65   32   96 1    
    66   33   34 2    
    67   33   35 1    
    68   35   36 1    
    69   35   37 1    
    70   35   97 1    
    71   36   98 1    
    72   36   99 1    
    73   36  100 1    
    74   37   38 am   BACKBONE|DICT|INTERRES
    75   37  101 1    
    76   38   39 2    
    77   38   40 1    
    78   40   41 1    
    79   40   42 1    
    80   40  102 1    
    81   41  103 1    
    82   41  104 1    
    83   41  105 1    
    84   42   43 am   BACKBONE|DICT|INTERRES
    85   42  106 1    
    86   43   44 2    
    87   43   45 1    
    88   45   46 1    
    89   45   49 1    
    90   45  107 1    
    91   46   47 1    
    92   46  108 1    
    93   46  109 1    
    94   47   48 1    
    95   48  110 1    
    96   48  111 1    
    97   49   50 am   BACKBONE|DICT|INTERRES
    98   49  112 1    
    99   50   51 2    
   100   50   52 1    
   101   52   53 1    
   102   52   54 1    
   103   52  113 1    
   104   53  114 1    
   105   53  115 1    
   106   53  116 1    
   107   54   55 am   BACKBONE|DICT|INTERRES
   108   54  117 1    
   109   55   56 2    
   110   55   57 1    
   111   57   58 1    
   112   57   59 1    
   113   57  118 1    
   114   58  119 1    
   115   58  120 1    
   116   58  121 1    
   117   59   60 am   BACKBONE|DICT|INTERRES
   118   59  122 1    
   119   60   61 2    
   120   60   62 1    
   121   62   63 1    
   122   62   64 1    
   123   62  123 1    
   124   63  124 1    
   125   63  125 1    
   126   63  126 1    
   127   64   65 am   BACKBONE|DICT|INTERRES
   128   64  127 1    
   129   65   66 2    
@<TRIPOS>SUBSTRUCTURE
     1 UNK         1 GROUP             0       ****    0 ROOT    
