@<TRIPOS>MOLECULE
3R135
127   129    1
SMALL
USER_CHARGES


@<TRIPOS>ATOM
      1 CA        -78.2932   29.2802  -74.8003 C.3       0 UNK        -0.1998 
      2 C         -79.7153   28.8221  -74.5227 C.2       0 UNK         0.4909 
      3 O         -80.5814   28.9315  -75.3906 O.2       0 UNK        -0.5240 
      4 N         -79.9440   28.3047  -73.3087 N.am      1 UNK        -0.4739 
      5 CA        -81.2345   27.8425  -72.7703 C.3       1 UNK         0.0864 
      6 C6        -82.2702   28.9831  -72.5654 C.3       11 UNK        -0.0881 
      7 S7        -81.6893   30.4382  -71.6217 S.3       11 UNK        -0.2682 
      8 C8        -80.8471   29.7312  -70.1639 C.3       11 UNK         0.0289 
      9 C9        -79.3433   29.5838  -70.3726 C.ar      11 UNK        -0.0687 
     10 C10       -78.7158   28.3388  -70.2434 C.ar      11 UNK        -0.0823 
     11 C11       -77.3294   28.2221  -70.3971 C.ar      11 UNK        -0.0830 
     12 C12       -76.5697   29.3655  -70.6700 C.ar      11 UNK        -0.1021 
     13 C13       -77.1837   30.6132  -70.7975 C.ar      11 UNK        -0.0753 
     14 C14       -78.5688   30.7141  -70.6507 C.ar      11 UNK        -0.0933 
     15 C15       -76.3559   31.8630  -71.0513 C.3       11 UNK         0.0166 
     16 S16       -76.0595   32.1290  -72.8260 S.3       11 UNK        -0.2615 
     17 C17       -74.4812   31.2474  -73.1036 C.3       11 UNK        -0.0865 
     18 CA        -74.5778   30.0816  -74.1348 C.3       10 UNK         0.0862 
     19 C         -74.6267   30.5388  -75.6256 C.2       10 UNK         0.5551 
     20 N         -75.2932   31.6421  -75.9304 N.am      10 UNK        -0.7319 
     21 O         -74.1122   29.8766  -76.5242 O.2       10 UNK        -0.5018 
     22 N         -73.5733   29.0331  -73.8944 N.am      10 UNK        -0.4509 
     23 C         -72.2447   29.2054  -73.8553 C.2       10 UNK         0.4899 
     24 O         -71.6837   30.2957  -73.9656 O.2       10 UNK        -0.4839 
     25 CA        -71.3923   27.9466  -73.6590 C.3       9 UNK         0.0222 
     26 CB        -71.5849   27.3426  -72.2559 C.3       9 UNK        -0.1966 
     27 N         -71.6904   26.9551  -74.6898 N.am      9 UNK        -0.4218 
     28 C         -70.8164   26.0682  -75.1817 C.2       9 UNK         0.5020 
     29 O         -69.6550   25.9532  -74.7863 O.2       9 UNK        -0.5274 
     30 CA        -71.3140   25.1594  -76.3199 C.3       8 UNK         0.0270 
     31 CB        -72.0347   23.9247  -75.7551 C.3       8 UNK        -0.1976 
     32 N         -72.1999   25.8575  -77.2533 N.am      8 UNK        -0.4313 
     33 C         -71.8262   26.8321  -78.0926 C.2       8 UNK         0.5041 
     34 O         -70.6576   27.1954  -78.2323 O.2       8 UNK        -0.5577 
     35 CA        -72.9262   27.5498  -78.8981 C.3       7 UNK         0.0284 
     36 CB        -73.0596   26.9661  -80.3188 C.3       7 UNK        -0.1958 
     37 N         -74.2214   27.6319  -78.2071 N.am      7 UNK        -0.4454 
     38 C         -75.0979   26.6551  -77.9450 C.2       7 UNK         0.5089 
     39 O         -74.9549   25.4851  -78.3019 O.2       7 UNK        -0.5125 
     40 CA        -76.3093   27.0405  -77.0798 C.3       6 UNK         0.0408 
     41 CB        -77.5982   27.0420  -77.9150 C.3       6 UNK        -0.1791 
     42 N         -76.4714   26.1359  -75.9398 N.am      6 UNK        -0.4762 
     43 C         -75.5579   25.9383  -74.9781 C.2       6 UNK         0.5007 
     44 O         -74.4798   26.5318  -74.9354 O.2       6 UNK        -0.5032 
     45 CA        -75.8902   24.9162  -73.8783 C.3       5 UNK         0.0783 
     46 C46       -76.6735   25.5771  -72.7146 C.3       11 UNK        -0.0857 
     47 S47       -75.5389   26.4297  -71.5711 S.3       11 UNK        -0.2512 
     48 C48       -76.6412   26.8777  -70.1919 C.3       11 UNK         0.0225 
     49 N         -76.5966   23.7571  -74.4322 N.am      5 UNK        -0.4615 
     50 C         -76.0482   22.5454  -74.6068 C.2       4 UNK         0.5053 
     51 O         -74.8852   22.2731  -74.3090 O.2       4 UNK        -0.5105 
     52 CA        -76.9367   21.4278  -75.1873 C.3       4 UNK         0.0263 
     53 CB        -77.4769   20.5368  -74.0567 C.3       4 UNK        -0.1981 
     54 N         -78.0622   21.9282  -75.9762 N.am      4 UNK        -0.4224 
     55 C         -77.9619   22.4562  -77.2039 C.2       3 UNK         0.4895 
     56 O         -76.9188   22.4742  -77.8560 O.2       3 UNK        -0.5091 
     57 CA        -79.2363   23.0838  -77.8049 C.3       3 UNK         0.0250 
     58 CB        -79.8775   22.1231  -78.8197 C.3       3 UNK        -0.1996 
     59 N         -80.2516   23.4918  -76.8222 N.am      3 UNK        -0.4254 
     60 C         -80.0603   24.3664  -75.8255 C.2       2 UNK         0.5004 
     61 O         -78.9765   24.9083  -75.5862 O.2       2 UNK        -0.5226 
     62 CA        -81.2534   24.6297  -74.9033 C.3       2 UNK         0.0269 
     63 CB        -81.5220   23.4216  -73.9860 C.3       2 UNK        -0.1926 
     64 N         -80.9412   25.8005  -74.0931 N.am      2 UNK        -0.4687 
     65 C         -81.8231   26.6414  -73.5461 C.2       1 UNK         0.5165 
     66 O         -83.0436   26.4859  -73.6244 O.2       1 UNK        -0.5079 
     67 H67       -78.1584   29.5154  -75.8557 H         1 UNK         0.0900 
     68 H68       -77.5813   28.5008  -74.5317 H         1 UNK         0.0900 
     69 H69       -78.0659   30.1745  -74.2203 H         1 UNK         0.0900 
     70 H70       -79.1834   28.2939  -72.6425 H         1 UNK         0.2959 
     71 H71       -81.0134   27.4256  -71.7889 H         1 UNK         0.1079 
     72 H72       -82.6251   29.3419  -73.5332 H         1 UNK         0.0837 
     73 H73       -83.1528   28.6003  -72.0493 H         1 UNK         0.0837 
     74 H74       -81.0079   30.4029  -69.3196 H         1 UNK         0.0685 
     75 H75       -81.3115   28.7848  -69.8843 H         1 UNK         0.0685 
     76 H76       -79.3031   27.4642  -69.9989 H         1 UNK         0.1434 
     77 H77       -75.4958   29.2849  -70.7682 H         1 UNK         0.1329 
     78 H78       -79.0482   31.6796  -70.7402 H         1 UNK         0.1335 
     79 H79       -76.8798   32.7360  -70.6588 H         1 UNK         0.0680 
     80 H80       -75.4129   31.8162  -70.5048 H         1 UNK         0.0680 
     81 H81       -74.1287   30.8588  -72.1479 H         1 UNK         0.1032 
     82 H82       -73.7266   31.9730  -73.4126 H         1 UNK         0.1032 
     83 H83       -75.5232   29.5690  -73.9617 H         1 UNK         0.0461 
     84 H84       -75.3460   31.9426  -76.8904 H         1 UNK         0.3453 
     85 H85       -75.7345   32.1831  -75.2007 H         1 UNK         0.3453 
     86 H86       -73.9378   28.0862  -73.8892 H         1 UNK         0.2984 
     87 H87       -70.3486   28.2538  -73.7569 H         1 UNK         0.0554 
     88 H88       -70.8819   26.5292  -72.0764 H         1 UNK         0.0847 
     89 H89       -72.5915   26.9471  -72.1197 H         1 UNK         0.0847 
     90 H90       -71.4185   28.0914  -71.4804 H         1 UNK         0.0847 
     91 H91       -72.6426   26.9475  -75.0490 H         1 UNK         0.3141 
     92 H92       -70.4403   24.8181  -76.8791 H         1 UNK         0.0743 
     93 H93       -72.9254   24.1979  -75.1889 H         1 UNK         0.0784 
     94 H94       -72.3407   23.2436  -76.5494 H         1 UNK         0.0784 
     95 H95       -71.3822   23.3659  -75.0829 H         1 UNK         0.0784 
     96 H96       -73.1802   25.5974  -77.2503 H         1 UNK         0.3213 
     97 H97       -72.5967   28.5851  -79.0026 H         1 UNK         0.0855 
     98 H98       -72.1154   27.0475  -80.8589 H         1 UNK         0.0814 
     99 H99       -73.8119   27.5002  -80.8989 H         1 UNK         0.0814 
    100 H100      -73.3304   25.9102  -80.3061 H         1 UNK         0.0814 
    101 H101      -74.3753   28.5271  -77.7434 H         1 UNK         0.3105 
    102 H102      -76.1594   28.0450  -76.6816 H         1 UNK         0.0547 
    103 H103      -77.5328   27.7622  -78.7313 H         1 UNK         0.0837 
    104 H104      -77.7877   26.0642  -78.3576 H         1 UNK         0.0837 
    105 H105      -78.4663   27.3102  -77.3123 H         1 UNK         0.0837 
    106 H106      -77.3465   25.6182  -75.8978 H         1 UNK         0.3020 
    107 H107      -74.9292   24.5792  -73.4821 H         1 UNK         0.1245 
    108 H108      -77.1988   24.8119  -72.1406 H         1 UNK         0.0781 
    109 H109      -77.4394   26.2691  -73.0700 H         1 UNK         0.0781 
    110 H110      -76.0444   26.9365  -69.2808 H         1 UNK         0.0836 
    111 H111      -77.3666   26.0794  -70.0278 H         1 UNK         0.0836 
    112 H112      -77.5435   23.9246  -74.7560 H         1 UNK         0.3022 
    113 H113      -76.3084   20.8132  -75.8358 H         1 UNK         0.0747 
    114 H114      -78.0490   19.6969  -74.4515 H         1 UNK         0.0793 
    115 H115      -76.6606   20.1200  -73.4648 H         1 UNK         0.0793 
    116 H116      -78.1217   21.0935  -73.3753 H         1 UNK         0.0793 
    117 H117      -78.9665   21.9335  -75.5285 H         1 UNK         0.3047 
    118 H118      -78.9241   23.9822  -78.3398 H         1 UNK         0.0822 
    119 H119      -80.7158   22.5909  -79.3363 H         1 UNK         0.0807 
    120 H120      -80.2416   21.2135  -78.3404 H         1 UNK         0.0807 
    121 H121      -79.1579   21.8231  -79.5831 H         1 UNK         0.0807 
    122 H122      -81.1678   23.0806  -76.9339 H         1 UNK         0.2946 
    123 H123      -82.1299   24.8363  -75.5221 H         1 UNK         0.1144 
    124 H124      -81.7672   22.5298  -74.5638 H         1 UNK         0.0793 
    125 H125      -82.3638   23.6103  -73.3195 H         1 UNK         0.0793 
    126 H126      -80.6553   23.1849  -73.3674 H         1 UNK         0.0793 
    127 H127      -79.9558   26.0297  -74.0621 H         1 UNK         0.2896 
@<TRIPOS>BOND
     1    1    2 1    
     2    1   67 1    
     3    1   68 1    
     4    1   69 1    
     5    2    3 2    
     6    2    4 am   BACKBONE|DICT|INTERRES
     7    4    5 1    
     8    4   70 1    
     9    5    6 1    
    10    5   65 1    
    11    5   71 1    
    12    6    7 1    
    13    6   72 1    
    14    6   73 1    
    15    7    8 1    
    16    8    9 1    
    17    8   74 1    
    18    8   75 1    
    19    9   10 ar   
    20    9   14 ar   
    21   10   11 ar   
    22   10   76 1    
    23   11   12 ar   
    24   11   48 1    
    25   12   13 ar   
    26   12   77 1    
    27   13   14 ar   
    28   13   15 1    
    29   14   78 1    
    30   15   16 1    
    31   15   79 1    
    32   15   80 1    
    33   16   17 1    
    34   17   18 1    
    35   17   81 1    
    36   17   82 1    
    37   18   19 1    
    38   18   22 1    
    39   18   83 1    
    40   19   20 am   BACKBONE|DICT|INTERRES
    41   19   21 2    
    42   20   84 1    
    43   20   85 1    
    44   22   23 am   BACKBONE|DICT|INTERRES
    45   22   86 1    
    46   23   24 2    
    47   23   25 1    
    48   25   26 1    
    49   25   27 1    
    50   25   87 1    
    51   26   88 1    
    52   26   89 1    
    53   26   90 1    
    54   27   28 am   BACKBONE|DICT|INTERRES
    55   27   91 1    
    56   28   29 2    
    57   28   30 1    
    58   30   31 1    
    59   30   32 1    
    60   30   92 1    
    61   31   93 1    
    62   31   94 1    
    63   31   95 1    
    64   32   33 am   BACKBONE|DICT|INTERRES
    65   32   96 1    
    66   33   34 2    
    67   33   35 1    
    68   35   36 1    
    69   35   37 1    
    70   35   97 1    
    71   36   98 1    
    72   36   99 1    
    73   36  100 1    
    74   37   38 am   BACKBONE|DICT|INTERRES
    75   37  101 1    
    76   38   39 2    
    77   38   40 1    
    78   40   41 1    
    79   40   42 1    
    80   40  102 1    
    81   41  103 1    
    82   41  104 1    
    83   41  105 1    
    84   42   43 am   BACKBONE|DICT|INTERRES
    85   42  106 1    
    86   43   44 2    
    87   43   45 1    
    88   45   46 1    
    89   45   49 1    
    90   45  107 1    
    91   46   47 1    
    92   46  108 1    
    93   46  109 1    
    94   47   48 1    
    95   48  110 1    
    96   48  111 1    
    97   49   50 am   BACKBONE|DICT|INTERRES
    98   49  112 1    
    99   50   51 2    
   100   50   52 1    
   101   52   53 1    
   102   52   54 1    
   103   52  113 1    
   104   53  114 1    
   105   53  115 1    
   106   53  116 1    
   107   54   55 am   BACKBONE|DICT|INTERRES
   108   54  117 1    
   109   55   56 2    
   110   55   57 1    
   111   57   58 1    
   112   57   59 1    
   113   57  118 1    
   114   58  119 1    
   115   58  120 1    
   116   58  121 1    
   117   59   60 am   BACKBONE|DICT|INTERRES
   118   59  122 1    
   119   60   61 2    
   120   60   62 1    
   121   62   63 1    
   122   62   64 1    
   123   62  123 1    
   124   63  124 1    
   125   63  125 1    
   126   63  126 1    
   127   64   65 am   BACKBONE|DICT|INTERRES
   128   64  127 1    
   129   65   66 2    
@<TRIPOS>SUBSTRUCTURE
     1 UNK         1 GROUP             0       ****    0 ROOT    
