@<TRIPOS>MOLECULE
3R135
127   129    1
SMALL
USER_CHARGES


@<TRIPOS>ATOM
      1 CA        -80.5573   31.7763  -73.2265 C.3       0 UNK        -0.1998 
      2 C         -81.0626   30.3454  -73.3355 C.2       0 UNK         0.4909 
      3 O         -82.2290   30.1347  -73.6681 O.2       0 UNK        -0.5240 
      4 N         -80.1839   29.3695  -73.0657 N.am      1 UNK        -0.4739 
      5 CA        -80.4350   27.9178  -73.0946 C.3       1 UNK         0.0864 
      6 C6        -81.5327   27.4379  -72.0956 C.3       11 UNK        -0.0881 
      7 S7        -81.3821   28.0926  -70.3951 S.3       11 UNK        -0.2682 
      8 C8        -80.1713   26.9588  -69.6241 C.3       11 UNK         0.0289 
      9 C9        -78.7057   27.2363  -69.9674 C.ar      11 UNK        -0.0687 
     10 C10       -77.7660   26.2119  -69.8062 C.ar      11 UNK        -0.0823 
     11 C11       -76.4161   26.4222  -70.1087 C.ar      11 UNK        -0.0830 
     12 C12       -76.0072   27.6659  -70.5990 C.ar      11 UNK        -0.1021 
     13 C13       -76.9309   28.7020  -70.7560 C.ar      11 UNK        -0.0753 
     14 C14       -78.2671   28.4906  -70.4113 C.ar      11 UNK        -0.0933 
     15 C15       -76.4981   30.0424  -71.3253 C.3       11 UNK         0.0166 
     16 S16       -76.8957   30.1157  -73.0966 S.3       11 UNK        -0.2615 
     17 C17       -76.1152   31.6904  -73.6025 C.3       11 UNK        -0.0865 
     18 CA        -74.6717   31.5319  -74.1635 C.3       10 UNK         0.0862 
     19 C         -73.5975   31.5558  -73.0343 C.2       10 UNK         0.5551 
     20 N         -72.7457   30.5496  -72.8818 N.am      10 UNK        -0.7319 
     21 O         -73.5317   32.5228  -72.2793 O.2       10 UNK        -0.5018 
     22 N         -74.5873   30.3951  -75.0907 N.am      10 UNK        -0.4509 
     23 C         -73.6511   30.1959  -76.0206 C.2       10 UNK         0.4899 
     24 O         -72.7699   31.0063  -76.3138 O.2       10 UNK        -0.4839 
     25 CA        -73.7239   28.8399  -76.7430 C.3       9 UNK         0.0222 
     26 CB        -74.1120   29.0291  -78.2184 C.3       9 UNK        -0.1966 
     27 N         -72.4816   28.0674  -76.6582 N.am      9 UNK        -0.4218 
     28 C         -71.8085   27.7672  -75.5360 C.2       9 UNK         0.5020 
     29 O         -72.1176   28.1653  -74.4108 O.2       9 UNK        -0.5274 
     30 CA        -70.6354   26.7933  -75.7102 C.3       8 UNK         0.0270 
     31 CB        -69.8974   26.4819  -74.3938 C.3       8 UNK        -0.1976 
     32 N         -71.1713   25.5592  -76.2761 N.am      8 UNK        -0.4313 
     33 C         -70.6003   24.8263  -77.2395 C.2       8 UNK         0.5041 
     34 O         -69.4871   25.0654  -77.7096 O.2       8 UNK        -0.5577 
     35 CA        -71.4031   23.6291  -77.7899 C.3       7 UNK         0.0284 
     36 CB        -70.9064   22.3168  -77.1615 C.3       7 UNK        -0.1958 
     37 N         -72.8512   23.7409  -77.5847 N.am      7 UNK        -0.4454 
     38 C         -73.6390   24.6751  -78.1363 C.2       7 UNK         0.5089 
     39 O         -73.2437   25.4965  -78.9638 O.2       7 UNK        -0.5125 
     40 CA        -75.1050   24.7318  -77.6631 C.3       6 UNK         0.0408 
     41 CB        -76.0196   24.0551  -78.6956 C.3       6 UNK        -0.1791 
     42 N         -75.3695   24.1587  -76.3340 N.am      6 UNK        -0.4762 
     43 C         -74.7864   24.5288  -75.1806 C.2       6 UNK         0.5007 
     44 O         -73.8490   25.3242  -75.1301 O.2       6 UNK        -0.5032 
     45 CA        -75.3024   23.8761  -73.8765 C.3       5 UNK         0.0783 
     46 C46       -75.0425   24.7650  -72.6271 C.3       11 UNK        -0.0857 
     47 S47       -75.5629   23.9527  -71.0781 S.3       11 UNK        -0.2512 
     48 C48       -75.3953   25.3144  -69.8829 C.3       11 UNK         0.0225 
     49 N         -76.6925   23.4095  -73.9875 N.am      5 UNK        -0.4615 
     50 C         -77.7782   24.1813  -74.1203 C.2       4 UNK         0.5053 
     51 O         -77.7617   25.4118  -74.1876 O.2       4 UNK        -0.5105 
     52 CA        -79.1206   23.4430  -74.1906 C.3       4 UNK         0.0263 
     53 CB        -79.9582   23.7156  -72.9317 C.3       4 UNK        -0.1981 
     54 N         -79.8468   23.8763  -75.3820 N.am      4 UNK        -0.4224 
     55 C         -79.5539   23.4555  -76.6218 C.2       3 UNK         0.4895 
     56 O         -78.7254   22.5765  -76.8645 O.2       3 UNK        -0.5091 
     57 CA        -80.2903   24.1295  -77.7929 C.3       3 UNK         0.0250 
     58 CB        -81.5608   23.3442  -78.1551 C.3       3 UNK        -0.1996 
     59 N         -80.6433   25.5223  -77.5160 N.am      3 UNK        -0.4254 
     60 C         -79.7630   26.5274  -77.4094 C.2       2 UNK         0.5004 
     61 O         -78.5571   26.4117  -77.6265 O.2       2 UNK        -0.5226 
     62 CA        -80.3177   27.8965  -76.9811 C.3       2 UNK         0.0269 
     63 CB        -81.7762   28.1436  -77.4290 C.3       2 UNK        -0.1926 
     64 N         -80.1746   28.1233  -75.5383 N.am      2 UNK        -0.4687 
     65 C         -80.6833   27.3934  -74.5306 C.2       1 UNK         0.5165 
     66 O         -81.3327   26.3581  -74.6996 O.2       1 UNK        -0.5079 
     67 H67       -80.5994   32.2645  -74.1997 H         1 UNK         0.0900 
     68 H68       -79.5291   31.8211  -72.8678 H         1 UNK         0.0900 
     69 H69       -81.1803   32.3413  -72.5338 H         1 UNK         0.0900 
     70 H70       -79.2323   29.6240  -72.8316 H         1 UNK         0.2959 
     71 H71       -79.4966   27.4501  -72.7917 H         1 UNK         0.1079 
     72 H72       -81.5598   26.3497  -72.0408 H         1 UNK         0.0837 
     73 H73       -82.5178   27.7313  -72.4624 H         1 UNK         0.0837 
     74 H74       -80.2818   27.0323  -68.5416 H         1 UNK         0.0685 
     75 H75       -80.4307   25.9329  -69.8906 H         1 UNK         0.0685 
     76 H76       -78.0828   25.2446  -69.4400 H         1 UNK         0.1434 
     77 H77       -74.9700   27.8293  -70.8590 H         1 UNK         0.1329 
     78 H78       -78.9655   29.3075  -70.5187 H         1 UNK         0.1335 
     79 H79       -77.0005   30.8567  -70.8008 H         1 UNK         0.0680 
     80 H80       -75.4271   30.1871  -71.1786 H         1 UNK         0.0680 
     81 H81       -76.1585   32.4111  -72.7833 H         1 UNK         0.1032 
     82 H82       -76.7462   32.1161  -74.3841 H         1 UNK         0.1032 
     83 H83       -74.4664   32.4273  -74.7533 H         1 UNK         0.0461 
     84 H84       -72.7469   29.7482  -73.5067 H         1 UNK         0.3453 
     85 H85       -72.0609   30.5986  -72.1454 H         1 UNK         0.3453 
     86 H86       -75.2543   29.6590  -74.9062 H         1 UNK         0.2984 
     87 H87       -74.4979   28.2312  -76.2699 H         1 UNK         0.0554 
     88 H88       -74.2631   28.0721  -78.7179 H         1 UNK         0.0847 
     89 H89       -73.3477   29.5794  -78.7686 H         1 UNK         0.0847 
     90 H90       -75.0442   29.5885  -78.3081 H         1 UNK         0.0847 
     91 H91       -72.1490   27.6686  -77.5247 H         1 UNK         0.3141 
     92 H92       -69.9318   27.2573  -76.4047 H         1 UNK         0.0743 
     93 H93       -70.5601   26.0177  -73.6621 H         1 UNK         0.0784 
     94 H94       -69.0580   25.8070  -74.5614 H         1 UNK         0.0784 
     95 H95       -69.4987   27.3925  -73.9450 H         1 UNK         0.0784 
     96 H96       -72.1104   25.3208  -75.9604 H         1 UNK         0.3213 
     97 H97       -71.2220   23.5855  -78.8661 H         1 UNK         0.0855 
     98 H98       -71.0762   22.2949  -76.0842 H         1 UNK         0.0814 
     99 H99       -69.8353   22.1879  -77.3244 H         1 UNK         0.0814 
    100 H100      -71.4043   21.4517  -77.5998 H         1 UNK         0.0814 
    101 H101      -73.2700   23.1062  -76.9209 H         1 UNK         0.3105 
    102 H102      -75.3791   25.7876  -77.6112 H         1 UNK         0.0547 
    103 H103      -75.8552   24.4636  -79.6937 H         1 UNK         0.0837 
    104 H104      -75.8454   22.9799  -78.7484 H         1 UNK         0.0837 
    105 H105      -77.0702   24.2147  -78.4561 H         1 UNK         0.0837 
    106 H106      -76.1340   23.4994  -76.2800 H         1 UNK         0.3020 
    107 H107      -74.6964   22.9764  -73.7572 H         1 UNK         0.1245 
    108 H108      -75.5620   25.7195  -72.7250 H         1 UNK         0.0781 
    109 H109      -73.9812   25.0038  -72.5359 H         1 UNK         0.0781 
    110 H110      -74.3778   25.7064  -69.9263 H         1 UNK         0.0836 
    111 H111      -75.5219   24.9141  -68.8760 H         1 UNK         0.0836 
    112 H112      -76.8171   22.4079  -73.9393 H         1 UNK         0.3022 
    113 H113      -78.9494   22.3661  -74.2559 H         1 UNK         0.0747 
    114 H114      -80.9476   23.2635  -73.0015 H         1 UNK         0.0793 
    115 H115      -79.4708   23.3048  -72.0465 H         1 UNK         0.0793 
    116 H116      -80.0845   24.7831  -72.7609 H         1 UNK         0.0793 
    117 H117      -80.4812   24.6612  -75.2646 H         1 UNK         0.3047 
    118 H118      -79.6212   24.1147  -78.6559 H         1 UNK         0.0822 
    119 H119      -82.0539   23.7681  -79.0301 H         1 UNK         0.0807 
    120 H120      -82.2793   23.3359  -77.3344 H         1 UNK         0.0807 
    121 H121      -81.3227   22.3058  -78.3905 H         1 UNK         0.0807 
    122 H122      -81.6076   25.7120  -77.2832 H         1 UNK         0.2946 
    123 H123      -79.6946   28.6424  -77.4777 H         1 UNK         0.1144 
    124 H124      -82.4898   27.5024  -76.9110 H         1 UNK         0.0793 
    125 H125      -81.8927   27.9713  -78.5000 H         1 UNK         0.0793 
    126 H126      -82.0703   29.1757  -77.2375 H         1 UNK         0.0793 
    127 H127      -79.6316   28.9351  -75.2799 H         1 UNK         0.2896 
@<TRIPOS>BOND
     1    1    2 1    
     2    1   67 1    
     3    1   68 1    
     4    1   69 1    
     5    2    3 2    
     6    2    4 am   BACKBONE|DICT|INTERRES
     7    4    5 1    
     8    4   70 1    
     9    5    6 1    
    10    5   65 1    
    11    5   71 1    
    12    6    7 1    
    13    6   72 1    
    14    6   73 1    
    15    7    8 1    
    16    8    9 1    
    17    8   74 1    
    18    8   75 1    
    19    9   10 ar   
    20    9   14 ar   
    21   10   11 ar   
    22   10   76 1    
    23   11   12 ar   
    24   11   48 1    
    25   12   13 ar   
    26   12   77 1    
    27   13   14 ar   
    28   13   15 1    
    29   14   78 1    
    30   15   16 1    
    31   15   79 1    
    32   15   80 1    
    33   16   17 1    
    34   17   18 1    
    35   17   81 1    
    36   17   82 1    
    37   18   19 1    
    38   18   22 1    
    39   18   83 1    
    40   19   20 am   BACKBONE|DICT|INTERRES
    41   19   21 2    
    42   20   84 1    
    43   20   85 1    
    44   22   23 am   BACKBONE|DICT|INTERRES
    45   22   86 1    
    46   23   24 2    
    47   23   25 1    
    48   25   26 1    
    49   25   27 1    
    50   25   87 1    
    51   26   88 1    
    52   26   89 1    
    53   26   90 1    
    54   27   28 am   BACKBONE|DICT|INTERRES
    55   27   91 1    
    56   28   29 2    
    57   28   30 1    
    58   30   31 1    
    59   30   32 1    
    60   30   92 1    
    61   31   93 1    
    62   31   94 1    
    63   31   95 1    
    64   32   33 am   BACKBONE|DICT|INTERRES
    65   32   96 1    
    66   33   34 2    
    67   33   35 1    
    68   35   36 1    
    69   35   37 1    
    70   35   97 1    
    71   36   98 1    
    72   36   99 1    
    73   36  100 1    
    74   37   38 am   BACKBONE|DICT|INTERRES
    75   37  101 1    
    76   38   39 2    
    77   38   40 1    
    78   40   41 1    
    79   40   42 1    
    80   40  102 1    
    81   41  103 1    
    82   41  104 1    
    83   41  105 1    
    84   42   43 am   BACKBONE|DICT|INTERRES
    85   42  106 1    
    86   43   44 2    
    87   43   45 1    
    88   45   46 1    
    89   45   49 1    
    90   45  107 1    
    91   46   47 1    
    92   46  108 1    
    93   46  109 1    
    94   47   48 1    
    95   48  110 1    
    96   48  111 1    
    97   49   50 am   BACKBONE|DICT|INTERRES
    98   49  112 1    
    99   50   51 2    
   100   50   52 1    
   101   52   53 1    
   102   52   54 1    
   103   52  113 1    
   104   53  114 1    
   105   53  115 1    
   106   53  116 1    
   107   54   55 am   BACKBONE|DICT|INTERRES
   108   54  117 1    
   109   55   56 2    
   110   55   57 1    
   111   57   58 1    
   112   57   59 1    
   113   57  118 1    
   114   58  119 1    
   115   58  120 1    
   116   58  121 1    
   117   59   60 am   BACKBONE|DICT|INTERRES
   118   59  122 1    
   119   60   61 2    
   120   60   62 1    
   121   62   63 1    
   122   62   64 1    
   123   62  123 1    
   124   63  124 1    
   125   63  125 1    
   126   63  126 1    
   127   64   65 am   BACKBONE|DICT|INTERRES
   128   64  127 1    
   129   65   66 2    
@<TRIPOS>SUBSTRUCTURE
     1 UNK         1 GROUP             0       ****    0 ROOT    
