@<TRIPOS>MOLECULE
3R135
127   129    1
SMALL
USER_CHARGES


@<TRIPOS>ATOM
      1 CA        -83.0775   30.7130  -76.4284 C.3       0 UNK        -0.1998 
      2 C         -82.0124   29.6425  -76.2435 C.2       0 UNK         0.4909 
      3 O         -82.0043   28.6532  -76.9766 O.2       0 UNK        -0.5240 
      4 N         -81.1086   29.8383  -75.2762 N.am      1 UNK        -0.4739 
      5 CA        -80.0536   28.8934  -74.8992 C.3       1 UNK         0.0864 
      6 C6        -78.9446   29.5513  -74.0295 C.3       11 UNK        -0.0881 
      7 S7        -79.4899   30.8377  -72.8437 S.3       11 UNK        -0.2682 
      8 C8        -79.7884   29.9102  -71.3058 C.3       11 UNK         0.0289 
      9 C9        -78.5226   29.2770  -70.7497 C.ar      11 UNK        -0.0687 
     10 C10       -78.3054   27.9062  -70.9029 C.ar      11 UNK        -0.0823 
     11 C11       -77.1483   27.3091  -70.3975 C.ar      11 UNK        -0.0830 
     12 C12       -76.2163   28.0897  -69.7086 C.ar      11 UNK        -0.1021 
     13 C13       -76.4246   29.4628  -69.5429 C.ar      11 UNK        -0.0753 
     14 C14       -77.5794   30.0523  -70.0683 C.ar      11 UNK        -0.0933 
     15 C15       -75.4069   30.3033  -68.7847 C.3       11 UNK         0.0166 
     16 S16       -73.7994   30.3766  -69.6373 S.3       11 UNK        -0.2615 
     17 C17       -74.2115   31.3229  -71.1452 C.3       11 UNK        -0.0865 
     18 CA        -74.4010   30.4319  -72.4026 C.3       10 UNK         0.0862 
     19 C         -74.7290   31.3177  -73.6363 C.2       10 UNK         0.5551 
     20 N         -75.9960   31.6526  -73.8370 N.am      10 UNK        -0.7319 
     21 O         -73.8430   31.7538  -74.3694 O.2       10 UNK        -0.5018 
     22 N         -73.2532   29.5313  -72.5976 N.am      10 UNK        -0.4509 
     23 C         -73.1524   28.5814  -73.5335 C.2       10 UNK         0.4899 
     24 O         -73.9879   28.3821  -74.4165 O.2       10 UNK        -0.4839 
     25 CA        -71.9215   27.6689  -73.4446 C.3       9 UNK         0.0222 
     26 CB        -71.8942   26.9073  -72.1000 C.3       9 UNK        -0.1966 
     27 N         -71.9705   26.7283  -74.5623 N.am      9 UNK        -0.4218 
     28 C         -71.0069   25.8855  -74.9461 C.2       9 UNK         0.5020 
     29 O         -69.8911   25.8361  -74.4259 O.2       9 UNK        -0.5274 
     30 CA        -71.3439   24.9053  -76.0840 C.3       8 UNK         0.0270 
     31 CB        -71.7714   23.5505  -75.4947 C.3       8 UNK        -0.1976 
     32 N         -72.3774   25.3778  -77.0163 N.am      8 UNK        -0.4313 
     33 C         -72.1655   26.3360  -77.9321 C.2       8 UNK         0.5041 
     34 O         -71.1200   26.9843  -77.9950 O.2       8 UNK        -0.5577 
     35 CA        -73.2561   26.6143  -78.9798 C.3       7 UNK         0.0284 
     36 CB        -73.0009   25.7893  -80.2547 C.3       7 UNK        -0.1958 
     37 N         -74.6226   26.3809  -78.5042 N.am      7 UNK        -0.4454 
     38 C         -75.6943   27.0690  -78.9347 C.2       7 UNK         0.5089 
     39 O         -75.6362   27.9740  -79.7681 O.2       7 UNK        -0.5125 
     40 CA        -77.0694   26.6911  -78.3489 C.3       6 UNK         0.0408 
     41 CB        -77.8135   25.7403  -79.2994 C.3       6 UNK        -0.1791 
     42 N         -76.9394   26.0561  -77.0408 N.am      6 UNK        -0.4762 
     43 C         -76.6339   26.7026  -75.9102 C.2       6 UNK         0.5007 
     44 O         -76.7514   27.9208  -75.7926 O.2       6 UNK        -0.5032 
     45 CA        -76.0797   25.8601  -74.7362 C.3       5 UNK         0.0783 
     46 C46       -76.5465   26.3876  -73.3599 C.3       11 UNK        -0.0857 
     47 S47       -75.7322   25.5244  -71.9738 S.3       11 UNK        -0.2512 
     48 C48       -76.9016   25.8235  -70.6106 C.3       11 UNK         0.0225 
     49 N         -76.2905   24.4133  -74.8852 N.am      5 UNK        -0.4615 
     50 C         -75.6217   23.6104  -75.7233 C.2       4 UNK         0.5053 
     51 O         -74.8087   24.0241  -76.5529 O.2       4 UNK        -0.5105 
     52 CA        -75.9542   22.1139  -75.6461 C.3       4 UNK         0.0263 
     53 CB        -75.2178   21.4590  -74.4665 C.3       4 UNK        -0.1981 
     54 N         -77.3983   21.8989  -75.5112 N.am      4 UNK        -0.4224 
     55 C         -78.2542   21.9064  -76.5430 C.2       3 UNK         0.4895 
     56 O         -77.9099   22.0014  -77.7215 O.2       3 UNK        -0.5091 
     57 CA        -79.7522   21.8301  -76.1940 C.3       3 UNK         0.0250 
     58 CB        -80.1321   20.4326  -75.6756 C.3       3 UNK        -0.1996 
     59 N         -80.1716   22.8538  -75.2273 N.am      3 UNK        -0.4254 
     60 C         -80.0943   24.1748  -75.4456 C.2       2 UNK         0.5004 
     61 O         -79.6651   24.6637  -76.4924 O.2       2 UNK        -0.5226 
     62 CA        -80.5573   25.1140  -74.3192 C.3       2 UNK         0.0269 
     63 CB        -80.0513   24.6793  -72.9278 C.3       2 UNK        -0.1926 
     64 N         -80.0892   26.4600  -74.6499 N.am      2 UNK        -0.4687 
     65 C         -80.6366   27.6146  -74.2574 C.2       1 UNK         0.5165 
     66 O         -81.5564   27.6927  -73.4400 O.2       1 UNK        -0.5079 
     67 H67       -84.0688   30.2842  -76.2842 H         1 UNK         0.0900 
     68 H68       -83.0264   31.1233  -77.4366 H         1 UNK         0.0900 
     69 H69       -82.9570   31.5339  -75.7216 H         1 UNK         0.0900 
     70 H70       -81.1713   30.6557  -74.6850 H         1 UNK         0.2959 
     71 H71       -79.5754   28.5820  -75.8317 H         1 UNK         0.1079 
     72 H72       -78.3356   28.8034  -73.5229 H         1 UNK         0.0837 
     73 H73       -78.2481   30.0497  -74.7053 H         1 UNK         0.0837 
     74 H74       -80.2022   30.5937  -70.5630 H         1 UNK         0.0685 
     75 H75       -80.5568   29.1563  -71.4781 H         1 UNK         0.0685 
     76 H76       -79.0341   27.3074  -71.4304 H         1 UNK         0.1434 
     77 H77       -75.3184   27.6323  -69.3155 H         1 UNK         0.1329 
     78 H78       -77.7497   31.1133  -69.9458 H         1 UNK         0.1335 
     79 H79       -75.7758   31.3171  -68.6216 H         1 UNK         0.0680 
     80 H80       -75.2585   29.8695  -67.7949 H         1 UNK         0.0680 
     81 H81       -73.4083   32.0434  -71.3123 H         1 UNK         0.1032 
     82 H82       -75.1086   31.9169  -70.9602 H         1 UNK         0.1032 
     83 H83       -75.2637   29.7849  -72.2299 H         1 UNK         0.0461 
     84 H84       -76.7295   31.3174  -73.2319 H         1 UNK         0.3453 
     85 H85       -76.2243   32.2458  -74.6187 H         1 UNK         0.3453 
     86 H86       -72.5167   29.6218  -71.9140 H         1 UNK         0.2984 
     87 H87       -71.0270   28.2871  -73.5415 H         1 UNK         0.0554 
     88 H88       -71.0149   26.2695  -72.0138 H         1 UNK         0.0847 
     89 H89       -72.7748   26.2753  -71.9814 H         1 UNK         0.0847 
     90 H90       -71.8684   27.5903  -71.2504 H         1 UNK         0.0847 
     91 H91       -72.8348   26.7689  -75.0871 H         1 UNK         0.3141 
     92 H92       -70.4272   24.7453  -76.6561 H         1 UNK         0.0743 
     93 H93       -72.6490   23.6497  -74.8552 H         1 UNK         0.0784 
     94 H94       -72.0031   22.8276  -76.2772 H         1 UNK         0.0784 
     95 H95       -70.9745   23.1231  -74.8845 H         1 UNK         0.0784 
     96 H96       -73.2519   24.8575  -77.0051 H         1 UNK         0.3213 
     97 H97       -73.1538   27.6715  -79.2361 H         1 UNK         0.0855 
     98 H98       -73.1282   24.7213  -80.0739 H         1 UNK         0.0814 
     99 H99       -71.9853   25.9405  -80.6234 H         1 UNK         0.0814 
    100 H100      -73.6802   26.0769  -81.0573 H         1 UNK         0.0814 
    101 H101      -74.7629   25.6406  -77.8267 H         1 UNK         0.3105 
    102 H102      -77.6580   27.6051  -78.2452 H         1 UNK         0.0547 
    103 H103      -77.9243   26.1849  -80.2893 H         1 UNK         0.0837 
    104 H104      -77.2852   24.7939  -79.4225 H         1 UNK         0.0837 
    105 H105      -78.8153   25.5178  -78.9321 H         1 UNK         0.0837 
    106 H106      -76.8849   25.0469  -77.0371 H         1 UNK         0.3020 
    107 H107      -75.0006   26.0160  -74.7736 H         1 UNK         0.1245 
    108 H108      -77.6273   26.3027  -73.2649 H         1 UNK         0.0781 
    109 H109      -76.3118   27.4487  -73.2547 H         1 UNK         0.0781 
    110 H110      -76.5001   25.3836  -69.6966 H         1 UNK         0.0836 
    111 H111      -77.8372   25.3007  -70.8129 H         1 UNK         0.0836 
    112 H112      -76.9395   23.9962  -74.2370 H         1 UNK         0.3022 
    113 H113      -75.6026   21.6437  -76.5673 H         1 UNK         0.0747 
    114 H114      -75.4173   20.3881  -74.4221 H         1 UNK         0.0793 
    115 H115      -74.1384   21.5805  -74.5658 H         1 UNK         0.0793 
    116 H116      -75.5078   21.8940  -73.5091 H         1 UNK         0.0793 
    117 H117      -77.7670   21.7907  -74.5777 H         1 UNK         0.3047 
    118 H118      -80.3083   22.0063  -77.1176 H         1 UNK         0.0822 
    119 H119      -81.2104   20.3394  -75.5443 H         1 UNK         0.0807 
    120 H120      -79.6582   20.2065  -74.7198 H         1 UNK         0.0807 
    121 H121      -79.8271   19.6588  -76.3818 H         1 UNK         0.0807 
    122 H122      -80.5456   22.5242  -74.3491 H         1 UNK         0.2946 
    123 H123      -81.6497   25.1140  -74.3225 H         1 UNK         0.1144 
    124 H124      -80.2730   25.4297  -72.1698 H         1 UNK         0.0793 
    125 H125      -78.9777   24.4959  -72.9208 H         1 UNK         0.0793 
    126 H126      -80.5379   23.7593  -72.6031 H         1 UNK         0.0793 
    127 H127      -79.4166   26.4654  -75.4081 H         1 UNK         0.2896 
@<TRIPOS>BOND
     1    1    2 1    
     2    1   67 1    
     3    1   68 1    
     4    1   69 1    
     5    2    3 2    
     6    2    4 am   BACKBONE|DICT|INTERRES
     7    4    5 1    
     8    4   70 1    
     9    5    6 1    
    10    5   65 1    
    11    5   71 1    
    12    6    7 1    
    13    6   72 1    
    14    6   73 1    
    15    7    8 1    
    16    8    9 1    
    17    8   74 1    
    18    8   75 1    
    19    9   10 ar   
    20    9   14 ar   
    21   10   11 ar   
    22   10   76 1    
    23   11   12 ar   
    24   11   48 1    
    25   12   13 ar   
    26   12   77 1    
    27   13   14 ar   
    28   13   15 1    
    29   14   78 1    
    30   15   16 1    
    31   15   79 1    
    32   15   80 1    
    33   16   17 1    
    34   17   18 1    
    35   17   81 1    
    36   17   82 1    
    37   18   19 1    
    38   18   22 1    
    39   18   83 1    
    40   19   20 am   BACKBONE|DICT|INTERRES
    41   19   21 2    
    42   20   84 1    
    43   20   85 1    
    44   22   23 am   BACKBONE|DICT|INTERRES
    45   22   86 1    
    46   23   24 2    
    47   23   25 1    
    48   25   26 1    
    49   25   27 1    
    50   25   87 1    
    51   26   88 1    
    52   26   89 1    
    53   26   90 1    
    54   27   28 am   BACKBONE|DICT|INTERRES
    55   27   91 1    
    56   28   29 2    
    57   28   30 1    
    58   30   31 1    
    59   30   32 1    
    60   30   92 1    
    61   31   93 1    
    62   31   94 1    
    63   31   95 1    
    64   32   33 am   BACKBONE|DICT|INTERRES
    65   32   96 1    
    66   33   34 2    
    67   33   35 1    
    68   35   36 1    
    69   35   37 1    
    70   35   97 1    
    71   36   98 1    
    72   36   99 1    
    73   36  100 1    
    74   37   38 am   BACKBONE|DICT|INTERRES
    75   37  101 1    
    76   38   39 2    
    77   38   40 1    
    78   40   41 1    
    79   40   42 1    
    80   40  102 1    
    81   41  103 1    
    82   41  104 1    
    83   41  105 1    
    84   42   43 am   BACKBONE|DICT|INTERRES
    85   42  106 1    
    86   43   44 2    
    87   43   45 1    
    88   45   46 1    
    89   45   49 1    
    90   45  107 1    
    91   46   47 1    
    92   46  108 1    
    93   46  109 1    
    94   47   48 1    
    95   48  110 1    
    96   48  111 1    
    97   49   50 am   BACKBONE|DICT|INTERRES
    98   49  112 1    
    99   50   51 2    
   100   50   52 1    
   101   52   53 1    
   102   52   54 1    
   103   52  113 1    
   104   53  114 1    
   105   53  115 1    
   106   53  116 1    
   107   54   55 am   BACKBONE|DICT|INTERRES
   108   54  117 1    
   109   55   56 2    
   110   55   57 1    
   111   57   58 1    
   112   57   59 1    
   113   57  118 1    
   114   58  119 1    
   115   58  120 1    
   116   58  121 1    
   117   59   60 am   BACKBONE|DICT|INTERRES
   118   59  122 1    
   119   60   61 2    
   120   60   62 1    
   121   62   63 1    
   122   62   64 1    
   123   62  123 1    
   124   63  124 1    
   125   63  125 1    
   126   63  126 1    
   127   64   65 am   BACKBONE|DICT|INTERRES
   128   64  127 1    
   129   65   66 2    
@<TRIPOS>SUBSTRUCTURE
     1 UNK         1 GROUP             0       ****    0 ROOT    
