@<TRIPOS>MOLECULE
3R135
127   129    1
SMALL
USER_CHARGES


@<TRIPOS>ATOM
      1 CA        -79.3269   22.9560  -69.8648 C.3       0 UNK        -0.1998 
      2 C         -79.8643   23.9248  -70.9063 C.2       0 UNK         0.4909 
      3 O         -79.5448   23.7879  -72.0867 O.2       0 UNK        -0.5240 
      4 N         -80.7031   24.8826  -70.4818 N.am      1 UNK        -0.4739 
      5 CA        -81.2727   25.9897  -71.2774 C.3       1 UNK         0.0864 
      6 C6        -80.1878   26.9417  -71.8554 C.3       11 UNK        -0.0881 
      7 S7        -79.0481   27.5990  -70.5880 S.3       11 UNK        -0.2682 
      8 C8        -79.0177   29.3757  -70.9859 C.3       11 UNK         0.0289 
      9 C9        -78.2981   29.6606  -72.2978 C.ar      11 UNK        -0.0687 
     10 C10       -79.0236   30.0027  -73.4440 C.ar      11 UNK        -0.0823 
     11 C11       -78.3634   30.2865  -74.6442 C.ar      11 UNK        -0.0830 
     12 C12       -76.9691   30.2580  -74.6828 C.ar      11 UNK        -0.1021 
     13 C13       -76.2363   29.8647  -73.5626 C.ar      11 UNK        -0.0753 
     14 C14       -76.9033   29.5794  -72.3672 C.ar      11 UNK        -0.0933 
     15 C15       -74.7354   29.6747  -73.6835 C.3       11 UNK         0.0166 
     16 S16       -73.7900   31.0708  -73.0039 S.3       11 UNK        -0.2615 
     17 C17       -73.3464   30.4497  -71.3433 C.3       11 UNK        -0.0865 
     18 CA        -71.8905   29.8961  -71.2819 C.3       10 UNK         0.0862 
     19 C         -71.4010   29.6391  -69.8227 C.2       10 UNK         0.5551 
     20 N         -70.5197   28.6753  -69.5846 N.am      10 UNK        -0.7319 
     21 O         -71.7963   30.3422  -68.8955 O.2       10 UNK        -0.5018 
     22 N         -71.6633   28.7784  -72.2192 N.am      10 UNK        -0.4509 
     23 C         -72.2330   27.5675  -72.1718 C.2       10 UNK         0.4899 
     24 O         -73.0135   27.2112  -71.2881 O.2       10 UNK        -0.4839 
     25 CA        -71.9034   26.6144  -73.3374 C.3       9 UNK         0.0222 
     26 CB        -72.5755   25.2366  -73.1860 C.3       9 UNK        -0.1966 
     27 N         -72.2758   27.1760  -74.6397 N.am      9 UNK        -0.4218 
     28 C         -71.5734   28.0846  -75.3328 C.2       9 UNK         0.5020 
     29 O         -70.5533   28.6283  -74.9032 O.2       9 UNK        -0.5274 
     30 CA        -72.1030   28.4196  -76.7423 C.3       8 UNK         0.0270 
     31 CB        -71.0952   29.2070  -77.6061 C.3       8 UNK        -0.1976 
     32 N         -72.5862   27.2188  -77.4353 N.am      8 UNK        -0.4313 
     33 C         -71.8780   26.1320  -77.7812 C.2       8 UNK         0.5041 
     34 O         -70.6517   26.0488  -77.7065 O.2       8 UNK        -0.5577 
     35 CA        -72.6768   24.9031  -78.2477 C.3       7 UNK         0.0284 
     36 CB        -72.8579   23.9179  -77.0802 C.3       7 UNK        -0.1958 
     37 N         -73.9956   25.2477  -78.7821 N.am      7 UNK        -0.4454 
     38 C         -74.2269   25.6460  -80.0396 C.2       7 UNK         0.5089 
     39 O         -73.3533   25.7480  -80.9012 O.2       7 UNK        -0.5125 
     40 CA        -75.6854   25.9841  -80.3962 C.3       6 UNK         0.0408 
     41 CB        -76.4072   24.7402  -80.9384 C.3       6 UNK        -0.1791 
     42 N         -76.4412   26.5285  -79.2636 N.am      6 UNK        -0.4762 
     43 C         -76.2590   27.7548  -78.7523 C.2       6 UNK         0.5007 
     44 O         -75.4389   28.5637  -79.1866 O.2       6 UNK        -0.5032 
     45 CA        -77.1203   28.1288  -77.5318 C.3       5 UNK         0.0783 
     46 C46       -78.4776   28.7258  -77.9941 C.3       11 UNK        -0.0857 
     47 S47       -79.7133   29.0261  -76.6811 S.3       11 UNK        -0.2512 
     48 C48       -79.1589   30.5794  -75.9064 C.3       11 UNK         0.0225 
     49 N         -77.2512   27.0295  -76.5672 N.am      5 UNK        -0.4615 
     50 C         -76.2404   26.4659  -75.8922 C.2       4 UNK         0.5053 
     51 O         -75.0562   26.7566  -76.0698 O.2       4 UNK        -0.5105 
     52 CA        -76.5745   25.3914  -74.8436 C.3       4 UNK         0.0263 
     53 CB        -76.7936   26.0495  -73.4692 C.3       4 UNK        -0.1981 
     54 N         -77.6746   24.4754  -75.1913 N.am      4 UNK        -0.4224 
     55 C         -78.9827   24.7343  -75.3377 C.2       3 UNK         0.4895 
     56 O         -79.4690   25.8617  -75.2592 O.2       3 UNK        -0.5091 
     57 CA        -79.9141   23.5492  -75.6421 C.3       3 UNK         0.0250 
     58 CB        -79.2173   22.1727  -75.6767 C.3       3 UNK        -0.1996 
     59 N         -80.9569   23.5351  -74.6222 N.am      3 UNK        -0.4254 
     60 C         -82.2771   23.4784  -74.8432 C.2       2 UNK         0.5004 
     61 O         -82.7807   23.3398  -75.9588 O.2       2 UNK        -0.5226 
     62 CA        -83.2033   23.5931  -73.6142 C.3       2 UNK         0.0269 
     63 CB        -83.7108   22.2050  -73.1907 C.3       2 UNK        -0.1926 
     64 N         -82.5453   24.2301  -72.4701 N.am      2 UNK        -0.4687 
     65 C         -82.2473   25.5351  -72.3932 C.2       1 UNK         0.5165 
     66 O         -82.7070   26.3698  -73.1740 O.2       1 UNK        -0.5079 
     67 H67       -79.6118   21.9355  -70.1189 H         1 UNK         0.0900 
     68 H68       -79.7053   23.1772  -68.8670 H         1 UNK         0.0900 
     69 H69       -78.2390   23.0088  -69.8344 H         1 UNK         0.0900 
     70 H70       -80.9390   24.9127  -69.4993 H         1 UNK         0.2959 
     71 H71       -81.8829   26.5716  -70.5848 H         1 UNK         0.1079 
     72 H72       -79.5979   26.4243  -72.6109 H         1 UNK         0.0837 
     73 H73       -80.6577   27.7799  -72.3721 H         1 UNK         0.0837 
     74 H74       -80.0380   29.7619  -71.0072 H         1 UNK         0.0685 
     75 H75       -78.5099   29.9055  -70.1788 H         1 UNK         0.0685 
     76 H76       -80.1040   30.0335  -73.4093 H         1 UNK         0.1434 
     77 H77       -76.4504   30.5052  -75.5969 H         1 UNK         0.1329 
     78 H78       -76.3425   29.2749  -71.4948 H         1 UNK         0.1335 
     79 H79       -74.4626   28.7417  -73.1964 H         1 UNK         0.0680 
     80 H80       -74.4588   29.5503  -74.7308 H         1 UNK         0.0680 
     81 H81       -74.0619   29.6968  -71.0117 H         1 UNK         0.1032 
     82 H82       -73.4632   31.2891  -70.6556 H         1 UNK         0.1032 
     83 H83       -71.2371   30.6934  -71.6380 H         1 UNK         0.0461 
     84 H84       -70.1795   28.1003  -70.3384 H         1 UNK         0.3453 
     85 H85       -70.1976   28.5197  -68.6424 H         1 UNK         0.3453 
     86 H86       -71.0565   28.9749  -73.0096 H         1 UNK         0.2984 
     87 H87       -70.8231   26.4554  -73.3245 H         1 UNK         0.0554 
     88 H88       -72.3001   24.7688  -72.2397 H         1 UNK         0.0847 
     89 H89       -72.2691   24.5559  -73.9801 H         1 UNK         0.0847 
     90 H90       -73.6630   25.3118  -73.2074 H         1 UNK         0.0847 
     91 H91       -73.1363   26.8352  -75.0533 H         1 UNK         0.3141 
     92 H92       -72.9764   29.0565  -76.5978 H         1 UNK         0.0743 
     93 H93       -70.8494   30.1628  -77.1419 H         1 UNK         0.0784 
     94 H94       -70.1600   28.6628  -77.7396 H         1 UNK         0.0784 
     95 H95       -71.5036   29.4215  -78.5937 H         1 UNK         0.0784 
     96 H96       -73.5959   27.1352  -77.4754 H         1 UNK         0.3213 
     97 H97       -72.0939   24.4062  -79.0267 H         1 UNK         0.0855 
     98 H98       -71.8933   23.6281  -76.6609 H         1 UNK         0.0814 
     99 H99       -73.3551   23.0040  -77.4057 H         1 UNK         0.0814 
    100 H100      -73.4470   24.3515  -76.2714 H         1 UNK         0.0814 
    101 H101      -74.7752   25.2099  -78.1422 H         1 UNK         0.3105 
    102 H102      -75.6666   26.7365  -81.1877 H         1 UNK         0.0547 
    103 H103      -75.8786   24.3280  -81.7992 H         1 UNK         0.0837 
    104 H104      -76.4742   23.9500  -80.1896 H         1 UNK         0.0837 
    105 H105      -77.4186   24.9793  -81.2673 H         1 UNK         0.0837 
    106 H106      -77.1405   25.9323  -78.8439 H         1 UNK         0.3020 
    107 H107      -76.5657   28.9143  -77.0252 H         1 UNK         0.1245 
    108 H108      -78.9555   28.0518  -78.7078 H         1 UNK         0.0781 
    109 H109      -78.3144   29.6592  -78.5363 H         1 UNK         0.0781 
    110 H110      -80.0339   31.1804  -75.6544 H         1 UNK         0.0836 
    111 H111      -78.5748   31.1722  -76.6118 H         1 UNK         0.0836 
    112 H112      -78.1969   26.7774  -76.2879 H         1 UNK         0.3022 
    113 H113      -75.6920   24.7554  -74.7606 H         1 UNK         0.0747 
    114 H114      -75.8818   26.5345  -73.1188 H         1 UNK         0.0793 
    115 H115      -77.5623   26.8211  -73.5142 H         1 UNK         0.0793 
    116 H116      -77.0886   25.3214  -72.7134 H         1 UNK         0.0793 
    117 H117      -77.3956   23.5106  -75.3016 H         1 UNK         0.3047 
    118 H118      -80.3488   23.7426  -76.6250 H         1 UNK         0.0822 
    119 H119      -78.4489   22.1319  -76.4498 H         1 UNK         0.0807 
    120 H120      -79.9337   21.3829  -75.9040 H         1 UNK         0.0807 
    121 H121      -78.7540   21.9258  -74.7201 H         1 UNK         0.0807 
    122 H122      -80.6232   23.6845  -73.6721 H         1 UNK         0.2946 
    123 H123      -84.0618   24.2020  -73.9074 H         1 UNK         0.1144 
    124 H124      -84.4139   22.2754  -72.3605 H         1 UNK         0.0793 
    125 H125      -82.8926   21.5515  -72.8854 H         1 UNK         0.0793 
    126 H126      -84.2314   21.7128  -74.0135 H         1 UNK         0.0793 
    127 H127      -82.1319   23.6172  -71.7821 H         1 UNK         0.2896 
@<TRIPOS>BOND
     1    1    2 1    
     2    1   67 1    
     3    1   68 1    
     4    1   69 1    
     5    2    3 2    
     6    2    4 am   BACKBONE|DICT|INTERRES
     7    4    5 1    
     8    4   70 1    
     9    5    6 1    
    10    5   65 1    
    11    5   71 1    
    12    6    7 1    
    13    6   72 1    
    14    6   73 1    
    15    7    8 1    
    16    8    9 1    
    17    8   74 1    
    18    8   75 1    
    19    9   10 ar   
    20    9   14 ar   
    21   10   11 ar   
    22   10   76 1    
    23   11   12 ar   
    24   11   48 1    
    25   12   13 ar   
    26   12   77 1    
    27   13   14 ar   
    28   13   15 1    
    29   14   78 1    
    30   15   16 1    
    31   15   79 1    
    32   15   80 1    
    33   16   17 1    
    34   17   18 1    
    35   17   81 1    
    36   17   82 1    
    37   18   19 1    
    38   18   22 1    
    39   18   83 1    
    40   19   20 am   BACKBONE|DICT|INTERRES
    41   19   21 2    
    42   20   84 1    
    43   20   85 1    
    44   22   23 am   BACKBONE|DICT|INTERRES
    45   22   86 1    
    46   23   24 2    
    47   23   25 1    
    48   25   26 1    
    49   25   27 1    
    50   25   87 1    
    51   26   88 1    
    52   26   89 1    
    53   26   90 1    
    54   27   28 am   BACKBONE|DICT|INTERRES
    55   27   91 1    
    56   28   29 2    
    57   28   30 1    
    58   30   31 1    
    59   30   32 1    
    60   30   92 1    
    61   31   93 1    
    62   31   94 1    
    63   31   95 1    
    64   32   33 am   BACKBONE|DICT|INTERRES
    65   32   96 1    
    66   33   34 2    
    67   33   35 1    
    68   35   36 1    
    69   35   37 1    
    70   35   97 1    
    71   36   98 1    
    72   36   99 1    
    73   36  100 1    
    74   37   38 am   BACKBONE|DICT|INTERRES
    75   37  101 1    
    76   38   39 2    
    77   38   40 1    
    78   40   41 1    
    79   40   42 1    
    80   40  102 1    
    81   41  103 1    
    82   41  104 1    
    83   41  105 1    
    84   42   43 am   BACKBONE|DICT|INTERRES
    85   42  106 1    
    86   43   44 2    
    87   43   45 1    
    88   45   46 1    
    89   45   49 1    
    90   45  107 1    
    91   46   47 1    
    92   46  108 1    
    93   46  109 1    
    94   47   48 1    
    95   48  110 1    
    96   48  111 1    
    97   49   50 am   BACKBONE|DICT|INTERRES
    98   49  112 1    
    99   50   51 2    
   100   50   52 1    
   101   52   53 1    
   102   52   54 1    
   103   52  113 1    
   104   53  114 1    
   105   53  115 1    
   106   53  116 1    
   107   54   55 am   BACKBONE|DICT|INTERRES
   108   54  117 1    
   109   55   56 2    
   110   55   57 1    
   111   57   58 1    
   112   57   59 1    
   113   57  118 1    
   114   58  119 1    
   115   58  120 1    
   116   58  121 1    
   117   59   60 am   BACKBONE|DICT|INTERRES
   118   59  122 1    
   119   60   61 2    
   120   60   62 1    
   121   62   63 1    
   122   62   64 1    
   123   62  123 1    
   124   63  124 1    
   125   63  125 1    
   126   63  126 1    
   127   64   65 am   BACKBONE|DICT|INTERRES
   128   64  127 1    
   129   65   66 2    
@<TRIPOS>SUBSTRUCTURE
     1 UNK         1 GROUP             0       ****    0 ROOT    
