@<TRIPOS>MOLECULE
3R135
127   129    1
SMALL
USER_CHARGES


@<TRIPOS>ATOM
      1 CA        -80.1020   23.4273  -71.2932 C.3       0 UNK        -0.1998 
      2 C         -81.3308   24.2888  -71.0535 C.2       0 UNK         0.4909 
      3 O         -82.2368   23.8742  -70.3304 O.2       0 UNK        -0.5240 
      4 N         -81.3843   25.4751  -71.6751 N.am      1 UNK        -0.4739 
      5 CA        -82.5518   26.3701  -71.6604 C.3       1 UNK         0.0864 
      6 C6        -82.1495   27.8356  -71.9758 C.3       11 UNK        -0.0881 
      7 S7        -81.4871   28.0945  -73.6634 S.3       11 UNK        -0.2682 
      8 C8        -80.3234   29.4748  -73.4190 C.3       11 UNK         0.0289 
      9 C9        -78.8817   28.9912  -73.3625 C.ar      11 UNK        -0.0687 
     10 C10       -78.4202   28.2880  -72.2474 C.ar      11 UNK        -0.0823 
     11 C11       -77.1044   27.8233  -72.1968 C.ar      11 UNK        -0.0830 
     12 C12       -76.2414   28.0743  -73.2671 C.ar      11 UNK        -0.1021 
     13 C13       -76.6835   28.7924  -74.3819 C.ar      11 UNK        -0.0753 
     14 C14       -78.0061   29.2467  -74.4242 C.ar      11 UNK        -0.0933 
     15 C15       -75.7385   29.0684  -75.5450 C.3       11 UNK         0.0166 
     16 S16       -74.7319   30.5598  -75.2663 S.3       11 UNK        -0.2615 
     17 C17       -73.5524   29.9535  -74.0128 C.3       11 UNK        -0.0865 
     18 CA        -72.2205   30.7439  -73.9844 C.3       10 UNK         0.0862 
     19 C         -71.3397   30.3029  -72.7769 C.2       10 UNK         0.5551 
     20 N         -70.1229   29.8061  -72.9692 N.am      10 UNK        -0.7319 
     21 O         -71.7715   30.4223  -71.6331 O.2       10 UNK        -0.5018 
     22 N         -71.5280   30.6965  -75.2813 N.am      10 UNK        -0.4509 
     23 C         -70.6578   31.6232  -75.7053 C.2       10 UNK         0.4899 
     24 O         -70.4275   32.6685  -75.0943 O.2       10 UNK        -0.4839 
     25 CA        -69.9147   31.3351  -77.0285 C.3       9 UNK         0.0222 
     26 CB        -68.5729   32.0923  -77.1287 C.3       9 UNK        -0.1966 
     27 N         -69.7151   29.9047  -77.3013 N.am      9 UNK        -0.4218 
     28 C         -69.0941   29.0118  -76.5170 C.2       9 UNK         0.5020 
     29 O         -68.5815   29.2759  -75.4268 O.2       9 UNK        -0.5274 
     30 CA        -69.0774   27.5618  -77.0243 C.3       8 UNK         0.0270 
     31 CB        -67.6365   27.0850  -77.2728 C.3       8 UNK        -0.1976 
     32 N         -69.7391   26.6504  -76.0879 N.am      8 UNK        -0.4313 
     33 C         -71.0232   26.7282  -75.7152 C.2       8 UNK         0.5041 
     34 O         -71.8030   27.6085  -76.0922 O.2       8 UNK        -0.5577 
     35 CA        -71.5278   25.6367  -74.7596 C.3       7 UNK         0.0284 
     36 CB        -71.6980   26.1864  -73.3335 C.3       7 UNK        -0.1958 
     37 N         -72.8079   25.1183  -75.2388 N.am      7 UNK        -0.4454 
     38 C         -72.9470   24.2455  -76.2464 C.2       7 UNK         0.5089 
     39 O         -71.9968   23.6862  -76.7969 O.2       7 UNK        -0.5125 
     40 CA        -74.3847   23.9780  -76.7392 C.3       6 UNK         0.0408 
     41 CB        -74.5552   22.5814  -77.3743 C.3       6 UNK        -0.1791 
     42 N         -75.4105   24.2396  -75.7201 N.am      6 UNK        -0.4762 
     43 C         -75.6416   23.5580  -74.5849 C.2       6 UNK         0.5007 
     44 O         -75.0301   22.5400  -74.2605 O.2       6 UNK        -0.5032 
     45 CA        -76.7036   24.1371  -73.6198 C.3       5 UNK         0.0783 
     46 C46       -75.9892   24.6610  -72.3459 C.3       11 UNK        -0.0857 
     47 S47       -77.1234   25.3032  -71.0726 S.3       11 UNK        -0.2512 
     48 C48       -76.6248   27.0496  -70.9804 C.3       11 UNK         0.0225 
     49 N         -77.5473   25.1576  -74.2678 N.am      5 UNK        -0.4615 
     50 C         -78.5094   24.8815  -75.1599 C.2       4 UNK         0.5053 
     51 O         -78.8930   23.7399  -75.4205 O.2       4 UNK        -0.5105 
     52 CA        -79.0703   26.0703  -75.9494 C.3       4 UNK         0.0263 
     53 CB        -78.0613   26.4963  -77.0387 C.3       4 UNK        -0.1981 
     54 N         -80.3528   25.7020  -76.5481 N.am      4 UNK        -0.4224 
     55 C         -81.1929   26.5214  -77.1930 C.2       3 UNK         0.4895 
     56 O         -80.9803   27.7201  -77.3781 O.2       3 UNK        -0.5091 
     57 CA        -82.5100   25.9160  -77.7126 C.3       3 UNK         0.0250 
     58 CB        -82.2743   24.7967  -78.7490 C.3       3 UNK        -0.1996 
     59 N         -83.4075   25.5022  -76.6259 N.am      3 UNK        -0.4254 
     60 C         -83.2361   24.4966  -75.7584 C.2       2 UNK         0.5004 
     61 O         -82.3125   23.6816  -75.8103 O.2       2 UNK        -0.5226 
     62 CA        -84.1971   24.4531  -74.5683 C.3       2 UNK         0.0269 
     63 CB        -84.7315   23.0342  -74.3056 C.3       2 UNK        -0.1926 
     64 N         -83.3973   24.8930  -73.4356 N.am      2 UNK        -0.4687 
     65 C         -83.6943   25.8815  -72.5852 C.2       1 UNK         0.5165 
     66 O         -84.7980   26.4268  -72.5332 O.2       1 UNK        -0.5079 
     67 H67       -80.3979   22.4040  -71.5228 H         1 UNK         0.0900 
     68 H68       -79.4748   23.4095  -70.4025 H         1 UNK         0.0900 
     69 H69       -79.5085   23.7979  -72.1282 H         1 UNK         0.0900 
     70 H70       -80.6100   25.7818  -72.2470 H         1 UNK         0.2959 
     71 H71       -82.9640   26.3612  -70.6486 H         1 UNK         0.1079 
     72 H72       -81.4160   28.1696  -71.2415 H         1 UNK         0.0837 
     73 H73       -83.0081   28.4972  -71.8458 H         1 UNK         0.0837 
     74 H74       -80.4525   30.1786  -74.2426 H         1 UNK         0.0685 
     75 H75       -80.5682   30.0270  -72.5107 H         1 UNK         0.0685 
     76 H76       -79.0876   28.0904  -71.4206 H         1 UNK         0.1434 
     77 H77       -75.2217   27.7190  -73.2274 H         1 UNK         0.1329 
     78 H78       -78.3557   29.7946  -75.2888 H         1 UNK         0.1335 
     79 H79       -75.0874   28.2105  -75.7209 H         1 UNK         0.0680 
     80 H80       -76.3110   29.2053  -76.4637 H         1 UNK         0.0680 
     81 H81       -73.3466   28.9003  -74.2024 H         1 UNK         0.1032 
     82 H82       -74.0497   30.0046  -73.0422 H         1 UNK         0.1032 
     83 H83       -72.4797   31.7860  -73.7874 H         1 UNK         0.0461 
     84 H84       -69.7290   29.7114  -73.9000 H         1 UNK         0.3453 
     85 H85       -69.5737   29.5379  -72.1688 H         1 UNK         0.3453 
     86 H86       -71.6473   29.8438  -75.8155 H         1 UNK         0.2984 
     87 H87       -70.5635   31.7077  -77.8224 H         1 UNK         0.0554 
     88 H88       -68.0734   31.8929  -78.0766 H         1 UNK         0.0847 
     89 H89       -67.8910   31.8124  -76.3249 H         1 UNK         0.0847 
     90 H90       -68.7235   33.1708  -77.0663 H         1 UNK         0.0847 
     91 H91       -70.1357   29.5666  -78.1565 H         1 UNK         0.3141 
     92 H92       -69.6196   27.5090  -77.9708 H         1 UNK         0.0743 
     93 H93       -67.0490   27.0778  -76.3536 H         1 UNK         0.0784 
     94 H94       -67.6164   26.0794  -77.6933 H         1 UNK         0.0784 
     95 H95       -67.1258   27.7406  -77.9796 H         1 UNK         0.0784 
     96 H96       -69.1668   25.9128  -75.7031 H         1 UNK         0.3213 
     97 H97       -70.8043   24.8188  -74.7285 H         1 UNK         0.0855 
     98 H98       -72.0016   25.4010  -72.6411 H         1 UNK         0.0814 
     99 H99       -72.4441   26.9785  -73.2860 H         1 UNK         0.0814 
    100 H100      -70.7605   26.6019  -72.9611 H         1 UNK         0.0814 
    101 H101      -73.6383   25.5670  -74.8867 H         1 UNK         0.3105 
    102 H102      -74.5629   24.7109  -77.5275 H         1 UNK         0.0547 
    103 H103      -74.2961   21.7827  -76.6791 H         1 UNK         0.0837 
    104 H104      -75.5800   22.4185  -77.7077 H         1 UNK         0.0837 
    105 H105      -73.9108   22.4687  -78.2469 H         1 UNK         0.0837 
    106 H106      -75.9831   25.0535  -75.8854 H         1 UNK         0.3020 
    107 H107      -77.3442   23.3017  -73.3279 H         1 UNK         0.1245 
    108 H108      -75.4225   23.8542  -71.8764 H         1 UNK         0.0781 
    109 H109      -75.2513   25.4224  -72.6009 H         1 UNK         0.0781 
    110 H110      -77.0502   27.4893  -70.0770 H         1 UNK         0.0836 
    111 H111      -75.5417   27.1236  -70.8701 H         1 UNK         0.0836 
    112 H112      -77.3284   26.1216  -74.0527 H         1 UNK         0.3022 
    113 H113      -79.2411   26.8938  -75.2572 H         1 UNK         0.0747 
    114 H114      -78.3777   27.4048  -77.5501 H         1 UNK         0.0793 
    115 H115      -77.0802   26.7062  -76.6149 H         1 UNK         0.0793 
    116 H116      -77.9325   25.7173  -77.7913 H         1 UNK         0.0793 
    117 H117      -80.6407   24.7391  -76.3852 H         1 UNK         0.3047 
    118 H118      -83.0353   26.7195  -78.2319 H         1 UNK         0.0822 
    119 H119      -83.2174   24.4277  -79.1521 H         1 UNK         0.0807 
    120 H120      -81.7344   23.9460  -78.3331 H         1 UNK         0.0807 
    121 H121      -81.6867   25.1681  -79.5895 H         1 UNK         0.0807 
    122 H122      -84.1766   26.1364  -76.4570 H         1 UNK         0.2946 
    123 H123      -85.0385   25.1275  -74.7445 H         1 UNK         0.1144 
    124 H124      -85.3960   23.0184  -73.4416 H         1 UNK         0.0793 
    125 H125      -83.9265   22.3221  -74.1187 H         1 UNK         0.0793 
    126 H126      -85.3004   22.6687  -75.1613 H         1 UNK         0.0793 
    127 H127      -82.4548   24.5283  -73.4153 H         1 UNK         0.2896 
@<TRIPOS>BOND
     1    1    2 1    
     2    1   67 1    
     3    1   68 1    
     4    1   69 1    
     5    2    3 2    
     6    2    4 am   BACKBONE|DICT|INTERRES
     7    4    5 1    
     8    4   70 1    
     9    5    6 1    
    10    5   65 1    
    11    5   71 1    
    12    6    7 1    
    13    6   72 1    
    14    6   73 1    
    15    7    8 1    
    16    8    9 1    
    17    8   74 1    
    18    8   75 1    
    19    9   10 ar   
    20    9   14 ar   
    21   10   11 ar   
    22   10   76 1    
    23   11   12 ar   
    24   11   48 1    
    25   12   13 ar   
    26   12   77 1    
    27   13   14 ar   
    28   13   15 1    
    29   14   78 1    
    30   15   16 1    
    31   15   79 1    
    32   15   80 1    
    33   16   17 1    
    34   17   18 1    
    35   17   81 1    
    36   17   82 1    
    37   18   19 1    
    38   18   22 1    
    39   18   83 1    
    40   19   20 am   BACKBONE|DICT|INTERRES
    41   19   21 2    
    42   20   84 1    
    43   20   85 1    
    44   22   23 am   BACKBONE|DICT|INTERRES
    45   22   86 1    
    46   23   24 2    
    47   23   25 1    
    48   25   26 1    
    49   25   27 1    
    50   25   87 1    
    51   26   88 1    
    52   26   89 1    
    53   26   90 1    
    54   27   28 am   BACKBONE|DICT|INTERRES
    55   27   91 1    
    56   28   29 2    
    57   28   30 1    
    58   30   31 1    
    59   30   32 1    
    60   30   92 1    
    61   31   93 1    
    62   31   94 1    
    63   31   95 1    
    64   32   33 am   BACKBONE|DICT|INTERRES
    65   32   96 1    
    66   33   34 2    
    67   33   35 1    
    68   35   36 1    
    69   35   37 1    
    70   35   97 1    
    71   36   98 1    
    72   36   99 1    
    73   36  100 1    
    74   37   38 am   BACKBONE|DICT|INTERRES
    75   37  101 1    
    76   38   39 2    
    77   38   40 1    
    78   40   41 1    
    79   40   42 1    
    80   40  102 1    
    81   41  103 1    
    82   41  104 1    
    83   41  105 1    
    84   42   43 am   BACKBONE|DICT|INTERRES
    85   42  106 1    
    86   43   44 2    
    87   43   45 1    
    88   45   46 1    
    89   45   49 1    
    90   45  107 1    
    91   46   47 1    
    92   46  108 1    
    93   46  109 1    
    94   47   48 1    
    95   48  110 1    
    96   48  111 1    
    97   49   50 am   BACKBONE|DICT|INTERRES
    98   49  112 1    
    99   50   51 2    
   100   50   52 1    
   101   52   53 1    
   102   52   54 1    
   103   52  113 1    
   104   53  114 1    
   105   53  115 1    
   106   53  116 1    
   107   54   55 am   BACKBONE|DICT|INTERRES
   108   54  117 1    
   109   55   56 2    
   110   55   57 1    
   111   57   58 1    
   112   57   59 1    
   113   57  118 1    
   114   58  119 1    
   115   58  120 1    
   116   58  121 1    
   117   59   60 am   BACKBONE|DICT|INTERRES
   118   59  122 1    
   119   60   61 2    
   120   60   62 1    
   121   62   63 1    
   122   62   64 1    
   123   62  123 1    
   124   63  124 1    
   125   63  125 1    
   126   63  126 1    
   127   64   65 am   BACKBONE|DICT|INTERRES
   128   64  127 1    
   129   65   66 2    
@<TRIPOS>SUBSTRUCTURE
     1 UNK         1 GROUP             0       ****    0 ROOT    
