@<TRIPOS>MOLECULE
3R135
127   129    1
SMALL
USER_CHARGES


@<TRIPOS>ATOM
      1 CA        -79.1772   25.1882  -70.8450 C.3       0 UNK        -0.1998 
      2 C         -80.4401   25.4512  -71.6509 C.2       0 UNK         0.4909 
      3 O         -81.2222   24.5288  -71.8889 O.2       0 UNK        -0.5240 
      4 N         -80.6422   26.7044  -72.0761 N.am      1 UNK        -0.4739 
      5 CA        -81.7963   27.1515  -72.8597 C.3       1 UNK         0.0864 
      6 C6        -81.9719   28.6918  -72.8194 C.3       11 UNK        -0.0881 
      7 S7        -82.0682   29.3312  -71.1091 S.3       11 UNK        -0.2682 
      8 C8        -80.9170   30.7454  -71.1399 C.3       11 UNK         0.0289 
      9 C9        -79.4946   30.3549  -71.5236 C.ar      11 UNK        -0.0687 
     10 C10       -78.9615   30.7766  -72.7447 C.ar      11 UNK        -0.0823 
     11 C11       -77.6577   30.4319  -73.1057 C.ar      11 UNK        -0.0830 
     12 C12       -76.8805   29.6668  -72.2326 C.ar      11 UNK        -0.1021 
     13 C13       -77.3877   29.2568  -70.9930 C.ar      11 UNK        -0.0753 
     14 C14       -78.7021   29.5994  -70.6530 C.ar      11 UNK        -0.0933 
     15 C15       -76.5528   28.4514  -69.9953 C.3       11 UNK         0.0166 
     16 S16       -74.7451   28.6843  -70.1323 S.3       11 UNK        -0.2615 
     17 C17       -74.2870   27.3088  -71.2393 C.3       11 UNK        -0.0865 
     18 CA        -72.9686   27.5843  -72.0192 C.3       10 UNK         0.0862 
     19 C         -72.0694   26.3168  -72.0884 C.2       10 UNK         0.5551 
     20 N         -71.9568   25.6272  -73.2188 N.am      10 UNK        -0.7319 
     21 O         -71.4505   25.9559  -71.0908 O.2       10 UNK        -0.5018 
     22 N         -73.2191   28.1649  -73.3482 N.am      10 UNK        -0.4509 
     23 C         -72.9725   29.4347  -73.6925 C.2       10 UNK         0.4899 
     24 O         -72.6941   30.3248  -72.8880 O.2       10 UNK        -0.4839 
     25 CA        -73.0224   29.7527  -75.2039 C.3       9 UNK         0.0222 
     26 CB        -72.3749   31.1100  -75.5534 C.3       9 UNK        -0.1966 
     27 N         -72.4668   28.6763  -76.0428 N.am      9 UNK        -0.4218 
     28 C         -71.2149   28.1914  -75.9791 C.2       9 UNK         0.5020 
     29 O         -70.3646   28.6204  -75.1971 O.2       9 UNK        -0.5274 
     30 CA        -70.8322   27.0438  -76.9304 C.3       8 UNK         0.0270 
     31 CB        -69.6757   26.1857  -76.3658 C.3       8 UNK        -0.1976 
     32 N         -71.9653   26.1826  -77.2906 N.am      8 UNK        -0.4313 
     33 C         -71.9734   25.3961  -78.3779 C.2       8 UNK         0.5041 
     34 O         -71.0899   25.4023  -79.2369 O.2       8 UNK        -0.5577 
     35 CA        -73.1499   24.4217  -78.5321 C.3       7 UNK         0.0284 
     36 CB        -73.1095   23.3259  -77.4532 C.3       7 UNK        -0.1958 
     37 N         -74.4372   25.1113  -78.5049 N.am      7 UNK        -0.4454 
     38 C         -74.9334   25.8287  -79.5229 C.2       7 UNK         0.5089 
     39 O         -74.3742   25.9551  -80.6126 O.2       7 UNK        -0.5125 
     40 CA        -76.2929   26.5151  -79.2955 C.3       6 UNK         0.0408 
     41 CB        -77.4259   25.6776  -79.9099 C.3       6 UNK        -0.1791 
     42 N         -76.5949   26.7655  -77.8840 N.am      6 UNK        -0.4762 
     43 C         -75.9369   27.6379  -77.1076 C.2       6 UNK         0.5007 
     44 O         -74.9781   28.3103  -77.4875 O.2       6 UNK        -0.5032 
     45 CA        -76.3805   27.6977  -75.6350 C.3       5 UNK         0.0783 
     46 C46       -77.7875   28.3187  -75.4648 C.3       11 UNK        -0.0857 
     47 S47       -77.8731   30.0969  -75.8709 S.3       11 UNK        -0.2512 
     48 C48       -77.0809   30.8942  -74.4352 C.3       11 UNK         0.0225 
     49 N         -76.3204   26.3737  -75.0217 N.am      5 UNK        -0.4615 
     50 C         -75.2441   25.5989  -74.8670 C.2       4 UNK         0.5053 
     51 O         -74.1018   25.9552  -75.1750 O.2       4 UNK        -0.5105 
     52 CA        -75.4722   24.1874  -74.2828 C.3       4 UNK         0.0263 
     53 CB        -75.3609   24.2052  -72.7467 C.3       4 UNK        -0.1981 
     54 N         -76.7157   23.5066  -74.6954 N.am      4 UNK        -0.4224 
     55 C         -77.9831   23.8581  -74.4303 C.2       3 UNK         0.4895 
     56 O         -78.2954   24.9115  -73.8745 O.2       3 UNK        -0.5091 
     57 CA        -79.0776   22.8578  -74.8233 C.3       3 UNK         0.0250 
     58 CB        -79.1789   21.7447  -73.7673 C.3       3 UNK        -0.1996 
     59 N         -80.3685   23.5411  -74.8997 N.am      3 UNK        -0.4254 
     60 C         -80.9253   24.0088  -76.0240 C.2       2 UNK         0.5004 
     61 O         -80.4475   23.8439  -77.1471 O.2       2 UNK        -0.5226 
     62 CA        -82.2413   24.7934  -75.8740 C.3       2 UNK         0.0269 
     63 CB        -83.4484   23.8544  -76.0307 C.3       2 UNK        -0.1926 
     64 N         -82.3374   25.4945  -74.5900 N.am      2 UNK        -0.4687 
     65 C         -81.6805   26.6269  -74.3050 C.2       1 UNK         0.5165 
     66 O         -80.9893   27.2348  -75.1237 O.2       1 UNK        -0.5079 
     67 H67       -78.4233   25.9511  -71.0335 H         1 UNK         0.0900 
     68 H68       -79.4025   25.1739  -69.7794 H         1 UNK         0.0900 
     69 H69       -78.7489   24.2248  -71.1202 H         1 UNK         0.0900 
     70 H70       -79.9585   27.4196  -71.8731 H         1 UNK         0.2959 
     71 H71       -82.6923   26.7149  -72.4124 H         1 UNK         0.1079 
     72 H72       -81.1596   29.1844  -73.3548 H         1 UNK         0.0837 
     73 H73       -82.8879   28.9800  -73.3382 H         1 UNK         0.0837 
     74 H74       -81.3086   31.5011  -71.8228 H         1 UNK         0.0685 
     75 H75       -80.9043   31.2078  -70.1520 H         1 UNK         0.0685 
     76 H76       -79.5621   31.3679  -73.4226 H         1 UNK         0.1434 
     77 H77       -75.8724   29.4067  -72.5197 H         1 UNK         0.1329 
     78 H78       -79.1120   29.2853  -69.7024 H         1 UNK         0.1335 
     79 H79       -76.8370   28.7390  -68.9819 H         1 UNK         0.0680 
     80 H80       -76.7948   27.3928  -70.0888 H         1 UNK         0.0680 
     81 H81       -74.2062   26.4232  -70.6050 H         1 UNK         0.1032 
     82 H82       -75.1057   27.1019  -71.9299 H         1 UNK         0.1032 
     83 H83       -72.3682   28.2887  -71.4397 H         1 UNK         0.0461 
     84 H84       -71.3549   24.8196  -73.2273 H         1 UNK         0.3453 
     85 H85       -72.5212   25.8381  -74.0290 H         1 UNK         0.3453 
     86 H86       -73.4274   27.5003  -74.0829 H         1 UNK         0.2984 
     87 H87       -74.0738   29.8375  -75.4686 H         1 UNK         0.0554 
     88 H88       -72.4410   31.3176  -76.6213 H         1 UNK         0.0847 
     89 H89       -71.3227   31.1441  -75.2691 H         1 UNK         0.0847 
     90 H90       -72.8767   31.9280  -75.0350 H         1 UNK         0.0847 
     91 H91       -73.1093   28.3050  -76.7369 H         1 UNK         0.3141 
     92 H92       -70.4752   27.5341  -77.8386 H         1 UNK         0.0743 
     93 H93       -69.9654   25.6862  -75.4409 H         1 UNK         0.0784 
     94 H94       -69.3556   25.4203  -77.0724 H         1 UNK         0.0784 
     95 H95       -68.7978   26.7951  -76.1476 H         1 UNK         0.0784 
     96 H96       -72.7287   26.1180  -76.6234 H         1 UNK         0.3213 
     97 H97       -73.0498   23.9299  -79.5027 H         1 UNK         0.0855 
     98 H98       -73.1422   23.7380  -76.4458 H         1 UNK         0.0814 
     99 H99       -72.1891   22.7455  -77.5304 H         1 UNK         0.0814 
    100 H100      -73.9400   22.6282  -77.5613 H         1 UNK         0.0814 
    101 H101      -74.9639   25.0807  -77.6460 H         1 UNK         0.3105 
    102 H102      -76.2629   27.4785  -79.8090 H         1 UNK         0.0547 
    103 H103      -78.3858   26.1883  -79.8315 H         1 UNK         0.0837 
    104 H104      -77.2453   25.4946  -80.9702 H         1 UNK         0.0837 
    105 H105      -77.5216   24.7058  -79.4239 H         1 UNK         0.0837 
    106 H106      -77.3581   26.2402  -77.4814 H         1 UNK         0.3020 
    107 H107      -75.6698   28.3183  -75.0931 H         1 UNK         0.1245 
    108 H108      -78.1446   28.1747  -74.4441 H         1 UNK         0.0781 
    109 H109      -78.5160   27.7974  -76.0880 H         1 UNK         0.0781 
    110 H110      -77.2070   31.9743  -74.5221 H         1 UNK         0.0836 
    111 H111      -76.0064   30.7172  -74.4724 H         1 UNK         0.0836 
    112 H112      -77.1998   25.9920  -74.6722 H         1 UNK         0.3022 
    113 H113      -74.6594   23.5640  -74.6562 H         1 UNK         0.0747 
    114 H114      -75.4949   23.2068  -72.3304 H         1 UNK         0.0793 
    115 H115      -74.3797   24.5500  -72.4273 H         1 UNK         0.0793 
    116 H116      -76.1056   24.8570  -72.2888 H         1 UNK         0.0793 
    117 H117      -76.5728   22.6328  -75.1837 H         1 UNK         0.3047 
    118 H118      -78.8242   22.4133  -75.7882 H         1 UNK         0.0822 
    119 H119      -79.4136   22.1457  -72.7800 H         1 UNK         0.0807 
    120 H120      -78.2417   21.1932  -73.6815 H         1 UNK         0.0807 
    121 H121      -79.9545   21.0237  -74.0268 H         1 UNK         0.0807 
    122 H122      -80.7828   23.8047  -74.0136 H         1 UNK         0.2946 
    123 H123      -82.2748   25.5311  -76.6795 H         1 UNK         0.1144 
    124 H124      -83.4151   23.3339  -76.9890 H         1 UNK         0.0793 
    125 H125      -83.4752   23.0950  -75.2481 H         1 UNK         0.0793 
    126 H126      -84.3877   24.4066  -75.9964 H         1 UNK         0.0793 
    127 H127      -82.8463   25.0293  -73.8505 H         1 UNK         0.2896 
@<TRIPOS>BOND
     1    1    2 1    
     2    1   67 1    
     3    1   68 1    
     4    1   69 1    
     5    2    3 2    
     6    2    4 am   BACKBONE|DICT|INTERRES
     7    4    5 1    
     8    4   70 1    
     9    5    6 1    
    10    5   65 1    
    11    5   71 1    
    12    6    7 1    
    13    6   72 1    
    14    6   73 1    
    15    7    8 1    
    16    8    9 1    
    17    8   74 1    
    18    8   75 1    
    19    9   10 ar   
    20    9   14 ar   
    21   10   11 ar   
    22   10   76 1    
    23   11   12 ar   
    24   11   48 1    
    25   12   13 ar   
    26   12   77 1    
    27   13   14 ar   
    28   13   15 1    
    29   14   78 1    
    30   15   16 1    
    31   15   79 1    
    32   15   80 1    
    33   16   17 1    
    34   17   18 1    
    35   17   81 1    
    36   17   82 1    
    37   18   19 1    
    38   18   22 1    
    39   18   83 1    
    40   19   20 am   BACKBONE|DICT|INTERRES
    41   19   21 2    
    42   20   84 1    
    43   20   85 1    
    44   22   23 am   BACKBONE|DICT|INTERRES
    45   22   86 1    
    46   23   24 2    
    47   23   25 1    
    48   25   26 1    
    49   25   27 1    
    50   25   87 1    
    51   26   88 1    
    52   26   89 1    
    53   26   90 1    
    54   27   28 am   BACKBONE|DICT|INTERRES
    55   27   91 1    
    56   28   29 2    
    57   28   30 1    
    58   30   31 1    
    59   30   32 1    
    60   30   92 1    
    61   31   93 1    
    62   31   94 1    
    63   31   95 1    
    64   32   33 am   BACKBONE|DICT|INTERRES
    65   32   96 1    
    66   33   34 2    
    67   33   35 1    
    68   35   36 1    
    69   35   37 1    
    70   35   97 1    
    71   36   98 1    
    72   36   99 1    
    73   36  100 1    
    74   37   38 am   BACKBONE|DICT|INTERRES
    75   37  101 1    
    76   38   39 2    
    77   38   40 1    
    78   40   41 1    
    79   40   42 1    
    80   40  102 1    
    81   41  103 1    
    82   41  104 1    
    83   41  105 1    
    84   42   43 am   BACKBONE|DICT|INTERRES
    85   42  106 1    
    86   43   44 2    
    87   43   45 1    
    88   45   46 1    
    89   45   49 1    
    90   45  107 1    
    91   46   47 1    
    92   46  108 1    
    93   46  109 1    
    94   47   48 1    
    95   48  110 1    
    96   48  111 1    
    97   49   50 am   BACKBONE|DICT|INTERRES
    98   49  112 1    
    99   50   51 2    
   100   50   52 1    
   101   52   53 1    
   102   52   54 1    
   103   52  113 1    
   104   53  114 1    
   105   53  115 1    
   106   53  116 1    
   107   54   55 am   BACKBONE|DICT|INTERRES
   108   54  117 1    
   109   55   56 2    
   110   55   57 1    
   111   57   58 1    
   112   57   59 1    
   113   57  118 1    
   114   58  119 1    
   115   58  120 1    
   116   58  121 1    
   117   59   60 am   BACKBONE|DICT|INTERRES
   118   59  122 1    
   119   60   61 2    
   120   60   62 1    
   121   62   63 1    
   122   62   64 1    
   123   62  123 1    
   124   63  124 1    
   125   63  125 1    
   126   63  126 1    
   127   64   65 am   BACKBONE|DICT|INTERRES
   128   64  127 1    
   129   65   66 2    
@<TRIPOS>SUBSTRUCTURE
     1 UNK         1 GROUP             0       ****    0 ROOT    
