@<TRIPOS>MOLECULE
3R135
127   129    1
SMALL
USER_CHARGES


@<TRIPOS>ATOM
      1 CA        -82.5436   29.7365  -76.8157 C.3       0 UNK        -0.1998 
      2 C         -83.5054   29.9080  -75.6417 C.2       0 UNK         0.4909 
      3 O         -84.4444   30.6959  -75.7421 O.2       0 UNK        -0.5240 
      4 N         -83.3146   29.2152  -74.5097 N.am      1 UNK        -0.4739 
      5 CA        -82.2945   28.1890  -74.2635 C.3       1 UNK         0.0864 
      6 C6        -81.9909   28.0636  -72.7473 C.3       11 UNK        -0.0881 
      7 S7        -80.3046   27.4390  -72.4381 S.3       11 UNK        -0.2682 
      8 C8        -79.4050   28.9796  -72.0725 C.3       11 UNK         0.0289 
      9 C9        -77.9022   28.7421  -72.0336 C.ar      11 UNK        -0.0687 
     10 C10       -77.3629   27.8171  -71.1358 C.ar      11 UNK        -0.0823 
     11 C11       -75.9919   27.5494  -71.1258 C.ar      11 UNK        -0.0830 
     12 C12       -75.1482   28.2477  -71.9943 C.ar      11 UNK        -0.1021 
     13 C13       -75.6720   29.1907  -72.8840 C.ar      11 UNK        -0.0753 
     14 C14       -77.0499   29.4317  -72.9013 C.ar      11 UNK        -0.0933 
     15 C15       -74.7589   29.9168  -73.8601 C.3       11 UNK         0.0166 
     16 S16       -74.4293   31.6287  -73.3385 S.3       11 UNK        -0.2615 
     17 C17       -73.1976   31.3808  -72.0126 C.3       11 UNK        -0.0865 
     18 CA        -71.8021   31.9738  -72.3683 C.3       10 UNK         0.0862 
     19 C         -70.8223   31.9671  -71.1534 C.2       10 UNK         0.5551 
     20 N         -69.5189   31.8181  -71.3574 N.am      10 UNK        -0.7319 
     21 O         -71.2415   32.1340  -70.0104 O.2       10 UNK        -0.5018 
     22 N         -71.2386   31.4353  -73.6230 N.am      10 UNK        -0.4509 
     23 C         -70.8876   30.1633  -73.8506 C.2       10 UNK         0.4899 
     24 O         -70.9817   29.2573  -73.0194 O.2       10 UNK        -0.4839 
     25 CA        -70.2824   29.8718  -75.2355 C.3       9 UNK         0.0222 
     26 CB        -68.7723   30.1635  -75.2334 C.3       9 UNK        -0.1966 
     27 N         -70.4978   28.4779  -75.6282 N.am      9 UNK        -0.4218 
     28 C         -71.6720   27.9803  -76.0351 C.2       9 UNK         0.5020 
     29 O         -72.6692   28.6740  -76.2485 O.2       9 UNK        -0.5274 
     30 CA        -71.7277   26.4529  -76.2146 C.3       8 UNK         0.0270 
     31 CB        -71.5307   25.7343  -74.8663 C.3       8 UNK        -0.1976 
     32 N         -73.0118   26.0404  -76.7835 N.am      8 UNK        -0.4313 
     33 C         -73.2735   25.9494  -78.0956 C.2       8 UNK         0.5041 
     34 O         -72.4248   26.1293  -78.9711 O.2       8 UNK        -0.5577 
     35 CA        -74.7090   25.5784  -78.5232 C.3       7 UNK         0.0284 
     36 CB        -74.7739   24.1108  -78.9758 C.3       7 UNK        -0.1958 
     37 N         -75.7003   25.7956  -77.4685 N.am      7 UNK        -0.4454 
     38 C         -76.1634   26.9967  -77.0968 C.2       7 UNK         0.5089 
     39 O         -75.9186   28.0383  -77.7056 O.2       7 UNK        -0.5125 
     40 CA        -77.0374   27.0585  -75.8287 C.3       6 UNK         0.0408 
     41 CB        -78.4883   27.4179  -76.1852 C.3       6 UNK        -0.1791 
     42 N         -77.0143   25.8458  -74.9954 N.am      6 UNK        -0.4762 
     43 C         -75.9307   25.4026  -74.3355 C.2       6 UNK         0.5007 
     44 O         -74.8235   25.9239  -74.4605 O.2       6 UNK        -0.5032 
     45 CA        -76.0569   24.1388  -73.4631 C.3       5 UNK         0.0783 
     46 C46       -76.3567   24.4454  -71.9729 C.3       11 UNK        -0.0857 
     47 S47       -74.8633   25.0006  -71.0743 S.3       11 UNK        -0.2512 
     48 C48       -75.4329   26.4894  -70.1884 C.3       11 UNK         0.0225 
     49 N         -76.9991   23.1721  -74.0347 N.am      5 UNK        -0.4615 
     50 C         -76.7878   21.8474  -74.0467 C.2       4 UNK         0.5053 
     51 O         -75.8175   21.3078  -73.5137 O.2       4 UNK        -0.5105 
     52 CA        -77.8116   20.9561  -74.7784 C.3       4 UNK         0.0263 
     53 CB        -78.7818   20.3196  -73.7697 C.3       4 UNK        -0.1981 
     54 N         -78.5856   21.6530  -75.8068 N.am      4 UNK        -0.4224 
     55 C         -78.0812   22.2472  -76.8971 C.2       3 UNK         0.4895 
     56 O         -76.8963   22.1844  -77.2229 O.2       3 UNK        -0.5091 
     57 CA        -79.0463   23.0924  -77.7507 C.3       3 UNK         0.0250 
     58 CB        -79.3662   22.3701  -79.0695 C.3       3 UNK        -0.1996 
     59 N         -80.3060   23.4769  -77.0947 N.am      3 UNK        -0.4254 
     60 C         -80.4154   24.1857  -75.9626 C.2       2 UNK         0.5004 
     61 O         -79.4555   24.5060  -75.2536 O.2       2 UNK        -0.5226 
     62 CA        -81.8283   24.5807  -75.5294 C.3       2 UNK         0.0269 
     63 CB        -82.4025   23.5589  -74.5334 C.3       2 UNK        -0.1926 
     64 N         -81.7392   25.8926  -74.9007 N.am      2 UNK        -0.4687 
     65 C         -82.6865   26.8335  -74.8994 C.2       1 UNK         0.5165 
     66 O         -83.8114   26.6651  -75.3778 O.2       1 UNK        -0.5079 
     67 H67       -82.5205   28.7033  -77.1599 H         1 UNK         0.0900 
     68 H68       -82.8567   30.3547  -77.6570 H         1 UNK         0.0900 
     69 H69       -81.5347   30.0426  -76.5407 H         1 UNK         0.0900 
     70 H70       -83.9889   29.3311  -73.7666 H         1 UNK         0.2959 
     71 H71       -81.3778   28.5178  -74.7560 H         1 UNK         0.1079 
     72 H72       -82.0851   29.0342  -72.2570 H         1 UNK         0.0837 
     73 H73       -82.7123   27.4134  -72.2480 H         1 UNK         0.0837 
     74 H74       -79.7355   29.3754  -71.1113 H         1 UNK         0.0685 
     75 H75       -79.6559   29.7278  -72.8262 H         1 UNK         0.0685 
     76 H76       -78.0223   27.2790  -70.4685 H         1 UNK         0.1434 
     77 H77       -74.0879   28.0335  -71.9973 H         1 UNK         0.1329 
     78 H78       -77.4555   30.1492  -73.6013 H         1 UNK         0.1335 
     79 H79       -73.8167   29.3801  -73.9738 H         1 UNK         0.0680 
     80 H80       -75.2198   29.9302  -74.8488 H         1 UNK         0.0680 
     81 H81       -73.1106   30.3222  -71.7663 H         1 UNK         0.1032 
     82 H82       -73.5981   31.8586  -71.1168 H         1 UNK         0.1032 
     83 H83       -71.9580   33.0343  -72.5694 H         1 UNK         0.0461 
     84 H84       -69.1602   31.6907  -72.2895 H         1 UNK         0.3453 
     85 H85       -68.8909   31.8265  -70.5691 H         1 UNK         0.3453 
     86 H86       -71.1059   32.1128  -74.3602 H         1 UNK         0.2984 
     87 H87       -70.7617   30.5194  -75.9730 H         1 UNK         0.0554 
     88 H88       -68.5741   31.2082  -74.9906 H         1 UNK         0.0847 
     89 H89       -68.3296   29.9730  -76.2114 H         1 UNK         0.0847 
     90 H90       -68.2428   29.5530  -74.5005 H         1 UNK         0.0847 
     91 H91       -69.7404   27.8369  -75.4415 H         1 UNK         0.3141 
     92 H92       -70.9197   26.1559  -76.8867 H         1 UNK         0.0743 
     93 H93       -70.5239   25.8894  -74.4776 H         1 UNK         0.0784 
     94 H94       -72.2263   26.0979  -74.1086 H         1 UNK         0.0784 
     95 H95       -71.6743   24.6580  -74.9631 H         1 UNK         0.0784 
     96 H96       -73.7769   25.9663  -76.1186 H         1 UNK         0.3213 
     97 H97       -74.9678   26.2092  -79.3765 H         1 UNK         0.0855 
     98 H98       -74.5222   23.4265  -78.1645 H         1 UNK         0.0814 
     99 H99       -74.0736   23.9218  -79.7906 H         1 UNK         0.0814 
    100 H100      -75.7686   23.8492  -79.3377 H         1 UNK         0.0814 
    101 H101      -75.9648   24.9930  -76.9157 H         1 UNK         0.3105 
    102 H102      -76.6377   27.8701  -75.2212 H         1 UNK         0.0547 
    103 H103      -79.1024   27.5087  -75.2906 H         1 UNK         0.0837 
    104 H104      -78.9402   26.6712  -76.8380 H         1 UNK         0.0837 
    105 H105      -78.5355   28.3746  -76.7069 H         1 UNK         0.0837 
    106 H106      -77.9044   25.3612  -74.9025 H         1 UNK         0.3020 
    107 H107      -75.0636   23.6844  -73.5079 H         1 UNK         0.1245 
    108 H108      -76.7000   23.5407  -71.4689 H         1 UNK         0.0781 
    109 H109      -77.1743   25.1602  -71.8774 H         1 UNK         0.0781 
    110 H110      -74.5952   26.9101  -69.6305 H         1 UNK         0.0836 
    111 H111      -76.1760   26.1957  -69.4452 H         1 UNK         0.0836 
    112 H112      -77.8302   23.5421  -74.4830 H         1 UNK         0.3022 
    113 H113      -77.2529   20.1578  -75.2713 H         1 UNK         0.0747 
    114 H114      -79.4574   19.6160  -74.2567 H         1 UNK         0.0793 
    115 H115      -78.2393   19.7655  -73.0022 H         1 UNK         0.0793 
    116 H116      -79.3868   21.0721  -73.2619 H         1 UNK         0.0793 
    117 H117      -79.5717   21.7688  -75.6270 H         1 UNK         0.3047 
    118 H118      -78.5167   24.0169  -77.9910 H         1 UNK         0.0822 
    119 H119      -79.9493   23.0028  -79.7390 H         1 UNK         0.0807 
    120 H120      -79.9276   21.4505  -78.8997 H         1 UNK         0.0807 
    121 H121      -78.4518   22.1002  -79.6004 H         1 UNK         0.0807 
    122 H122      -81.1514   23.2329  -77.5913 H         1 UNK         0.2946 
    123 H123      -82.4700   24.6394  -76.4119 H         1 UNK         0.1144 
    124 H124      -81.7799   23.4729  -73.6416 H         1 UNK         0.0793 
    125 H125      -82.4719   22.5676  -74.9829 H         1 UNK         0.0793 
    126 H126      -83.4061   23.8396  -74.2133 H         1 UNK         0.0793 
    127 H127      -80.8402   26.0882  -74.4744 H         1 UNK         0.2896 
@<TRIPOS>BOND
     1    1    2 1    
     2    1   67 1    
     3    1   68 1    
     4    1   69 1    
     5    2    3 2    
     6    2    4 am   BACKBONE|DICT|INTERRES
     7    4    5 1    
     8    4   70 1    
     9    5    6 1    
    10    5   65 1    
    11    5   71 1    
    12    6    7 1    
    13    6   72 1    
    14    6   73 1    
    15    7    8 1    
    16    8    9 1    
    17    8   74 1    
    18    8   75 1    
    19    9   10 ar   
    20    9   14 ar   
    21   10   11 ar   
    22   10   76 1    
    23   11   12 ar   
    24   11   48 1    
    25   12   13 ar   
    26   12   77 1    
    27   13   14 ar   
    28   13   15 1    
    29   14   78 1    
    30   15   16 1    
    31   15   79 1    
    32   15   80 1    
    33   16   17 1    
    34   17   18 1    
    35   17   81 1    
    36   17   82 1    
    37   18   19 1    
    38   18   22 1    
    39   18   83 1    
    40   19   20 am   BACKBONE|DICT|INTERRES
    41   19   21 2    
    42   20   84 1    
    43   20   85 1    
    44   22   23 am   BACKBONE|DICT|INTERRES
    45   22   86 1    
    46   23   24 2    
    47   23   25 1    
    48   25   26 1    
    49   25   27 1    
    50   25   87 1    
    51   26   88 1    
    52   26   89 1    
    53   26   90 1    
    54   27   28 am   BACKBONE|DICT|INTERRES
    55   27   91 1    
    56   28   29 2    
    57   28   30 1    
    58   30   31 1    
    59   30   32 1    
    60   30   92 1    
    61   31   93 1    
    62   31   94 1    
    63   31   95 1    
    64   32   33 am   BACKBONE|DICT|INTERRES
    65   32   96 1    
    66   33   34 2    
    67   33   35 1    
    68   35   36 1    
    69   35   37 1    
    70   35   97 1    
    71   36   98 1    
    72   36   99 1    
    73   36  100 1    
    74   37   38 am   BACKBONE|DICT|INTERRES
    75   37  101 1    
    76   38   39 2    
    77   38   40 1    
    78   40   41 1    
    79   40   42 1    
    80   40  102 1    
    81   41  103 1    
    82   41  104 1    
    83   41  105 1    
    84   42   43 am   BACKBONE|DICT|INTERRES
    85   42  106 1    
    86   43   44 2    
    87   43   45 1    
    88   45   46 1    
    89   45   49 1    
    90   45  107 1    
    91   46   47 1    
    92   46  108 1    
    93   46  109 1    
    94   47   48 1    
    95   48  110 1    
    96   48  111 1    
    97   49   50 am   BACKBONE|DICT|INTERRES
    98   49  112 1    
    99   50   51 2    
   100   50   52 1    
   101   52   53 1    
   102   52   54 1    
   103   52  113 1    
   104   53  114 1    
   105   53  115 1    
   106   53  116 1    
   107   54   55 am   BACKBONE|DICT|INTERRES
   108   54  117 1    
   109   55   56 2    
   110   55   57 1    
   111   57   58 1    
   112   57   59 1    
   113   57  118 1    
   114   58  119 1    
   115   58  120 1    
   116   58  121 1    
   117   59   60 am   BACKBONE|DICT|INTERRES
   118   59  122 1    
   119   60   61 2    
   120   60   62 1    
   121   62   63 1    
   122   62   64 1    
   123   62  123 1    
   124   63  124 1    
   125   63  125 1    
   126   63  126 1    
   127   64   65 am   BACKBONE|DICT|INTERRES
   128   64  127 1    
   129   65   66 2    
@<TRIPOS>SUBSTRUCTURE
     1 UNK         1 GROUP             0       ****    0 ROOT    
