@<TRIPOS>MOLECULE
3R135
127   129    1
SMALL
USER_CHARGES


@<TRIPOS>ATOM
      1 CA        -83.1193   26.8256  -70.2140 C.3       0 UNK        -0.1998 
      2 C         -83.2105   27.2442  -71.6737 C.2       0 UNK         0.4909 
      3 O         -84.3089   27.3061  -72.2268 O.2       0 UNK        -0.5240 
      4 N         -82.0628   27.5308  -72.3011 N.am      1 UNK        -0.4739 
      5 CA        -81.9588   27.9395  -73.7088 C.3       1 UNK         0.0864 
      6 C6        -80.6065   28.6356  -74.0009 C.3       11 UNK        -0.0881 
      7 S7        -80.4842   30.2762  -73.2095 S.3       11 UNK        -0.2682 
      8 C8        -79.5225   29.9411  -71.6963 C.3       11 UNK         0.0289 
      9 C9        -78.1439   29.3588  -71.9806 C.ar      11 UNK        -0.0687 
     10 C10       -77.7828   28.1186  -71.4454 C.ar      11 UNK        -0.0823 
     11 C11       -76.5211   27.5694  -71.7025 C.ar      11 UNK        -0.0830 
     12 C12       -75.6114   28.2897  -72.4842 C.ar      11 UNK        -0.1021 
     13 C13       -75.9529   29.5373  -73.0114 C.ar      11 UNK        -0.0753 
     14 C14       -77.2217   30.0658  -72.7584 C.ar      11 UNK        -0.0933 
     15 C15       -74.9503   30.3226  -73.8426 C.3       11 UNK         0.0166 
     16 S16       -74.0304   31.4926  -72.7968 S.3       11 UNK        -0.2615 
     17 C17       -73.2285   32.5597  -74.0465 C.3       11 UNK        -0.0865 
     18 CA        -71.6829   32.7282  -73.9330 C.3       10 UNK         0.0862 
     19 C         -71.1794   33.2340  -72.5449 C.2       10 UNK         0.5551 
     20 N         -70.0317   32.7877  -72.0504 N.am      10 UNK        -0.7319 
     21 O         -71.8109   34.0915  -71.9317 O.2       10 UNK        -0.5018 
     22 N         -70.9232   31.6360  -74.5703 N.am      10 UNK        -0.4509 
     23 C         -70.7112   30.3935  -74.1197 C.2       10 UNK         0.4899 
     24 O         -71.0933   29.9586  -73.0326 O.2       10 UNK        -0.4839 
     25 CA        -69.8519   29.5032  -75.0356 C.3       9 UNK         0.0222 
     26 CB        -68.3654   29.6273  -74.6613 C.3       9 UNK        -0.1966 
     27 N         -70.2452   28.0938  -74.9775 N.am      9 UNK        -0.4218 
     28 C         -71.4200   27.6130  -75.4034 C.2       9 UNK         0.5020 
     29 O         -72.2978   28.3084  -75.9207 O.2       9 UNK        -0.5274 
     30 CA        -71.6426   26.1048  -75.1946 C.3       8 UNK         0.0270 
     31 CB        -71.9670   25.8048  -73.7207 C.3       8 UNK        -0.1976 
     32 N         -72.7294   25.6049  -76.0397 N.am      8 UNK        -0.4313 
     33 C         -72.6094   25.3371  -77.3491 C.2       8 UNK         0.5041 
     34 O         -71.5367   25.3850  -77.9546 O.2       8 UNK        -0.5577 
     35 CA        -73.8791   24.9336  -78.1278 C.3       7 UNK         0.0284 
     36 CB        -73.9385   23.4068  -78.2999 C.3       7 UNK        -0.1958 
     37 N         -75.1215   25.3876  -77.5031 N.am      7 UNK        -0.4454 
     38 C         -75.5117   26.6638  -77.3872 C.2       7 UNK         0.5089 
     39 O         -74.9470   27.6030  -77.9475 O.2       7 UNK        -0.5125 
     40 CA        -76.7279   26.9495  -76.4832 C.3       6 UNK         0.0408 
     41 CB        -77.9614   27.2988  -77.3300 C.3       6 UNK        -0.1791 
     42 N         -77.0816   25.8649  -75.5603 N.am      6 UNK        -0.4762 
     43 C         -76.3005   25.3606  -74.5930 C.2       6 UNK         0.5007 
     44 O         -75.1310   25.6936  -74.4132 O.2       6 UNK        -0.5032 
     45 CA        -76.9232   24.2558  -73.7235 C.3       5 UNK         0.0783 
     46 C46       -77.9957   24.8272  -72.7536 C.3       11 UNK        -0.0857 
     47 S47       -77.4214   24.9643  -71.0284 S.3       11 UNK        -0.2512 
     48 C48       -76.0977   26.2232  -71.1173 C.3       11 UNK         0.0225 
     49 N         -77.4670   23.2126  -74.5929 N.am      5 UNK        -0.4615 
     50 C         -76.7449   22.2319  -75.1509 C.2       4 UNK         0.5053 
     51 O         -75.5498   22.0486  -74.9221 O.2       4 UNK        -0.5105 
     52 CA        -77.4707   21.2978  -76.1369 C.3       4 UNK         0.0263 
     53 CB        -77.9431   20.0239  -75.4183 C.3       4 UNK        -0.1981 
     54 N         -78.6148   21.9296  -76.7997 N.am      4 UNK        -0.4224 
     55 C         -78.5209   22.9182  -77.7004 C.2       3 UNK         0.4895 
     56 O         -77.4540   23.3710  -78.1133 O.2       3 UNK        -0.5091 
     57 CA        -79.8435   23.5385  -78.1855 C.3       3 UNK         0.0250 
     58 CB        -80.3923   22.7594  -79.3913 C.3       3 UNK        -0.1996 
     59 N         -80.8813   23.6365  -77.1491 N.am      3 UNK        -0.4254 
     60 C         -80.7464   24.2959  -75.9899 C.2       2 UNK         0.5004 
     61 O         -79.6971   24.8312  -75.6248 O.2       2 UNK        -0.5226 
     62 CA        -81.9641   24.3177  -75.0528 C.3       2 UNK         0.0269 
     63 CB        -81.9526   23.0829  -74.1372 C.3       2 UNK        -0.1926 
     64 N         -81.9632   25.5243  -74.2224 N.am      2 UNK        -0.4687 
     65 C         -82.1756   26.7647  -74.6867 C.2       1 UNK         0.5165 
     66 O         -82.5237   27.0042  -75.8445 O.2       1 UNK        -0.5079 
     67 H67       -82.0901   26.8148  -69.8553 H         1 UNK         0.0900 
     68 H68       -83.5343   25.8266  -70.0836 H         1 UNK         0.0900 
     69 H69       -83.6879   27.5150  -69.5904 H         1 UNK         0.0900 
     70 H70       -81.1914   27.4690  -71.7963 H         1 UNK         0.2959 
     71 H71       -82.7593   28.6546  -73.9134 H         1 UNK         0.1079 
     72 H72       -80.4880   28.8058  -75.0731 H         1 UNK         0.0837 
     73 H73       -79.7674   28.0010  -73.7112 H         1 UNK         0.0837 
     74 H74       -79.4003   30.8762  -71.1482 H         1 UNK         0.0685 
     75 H75       -80.1007   29.2831  -71.0466 H         1 UNK         0.0685 
     76 H76       -78.4853   27.5792  -70.8257 H         1 UNK         0.1434 
     77 H77       -74.6288   27.8832  -72.6807 H         1 UNK         0.1329 
     78 H78       -77.4915   31.0320  -73.1624 H         1 UNK         0.1335 
     79 H79       -74.2485   29.6491  -74.3381 H         1 UNK         0.0680 
     80 H80       -75.4745   30.8644  -74.6315 H         1 UNK         0.0680 
     81 H81       -73.6990   33.5415  -73.9685 H         1 UNK         0.1032 
     82 H82       -73.4809   32.2058  -75.0471 H         1 UNK         0.1032 
     83 H83       -71.4490   33.5733  -74.5817 H         1 UNK         0.0461 
     84 H84       -69.5140   32.0744  -72.5372 H         1 UNK         0.3453 
     85 H85       -69.7058   33.1359  -71.1627 H         1 UNK         0.3453 
     86 H86       -70.5120   31.8820  -75.4596 H         1 UNK         0.2984 
     87 H87       -69.9772   29.8376  -76.0678 H         1 UNK         0.0554 
     88 H88       -67.7357   29.0400  -75.3300 H         1 UNK         0.0847 
     89 H89       -68.1765   29.2920  -73.6405 H         1 UNK         0.0847 
     90 H90       -68.0281   30.6624  -74.7309 H         1 UNK         0.0847 
     91 H91       -69.5975   27.4628  -74.5284 H         1 UNK         0.3141 
     92 H92       -70.7244   25.5769  -75.4612 H         1 UNK         0.0743 
     93 H93       -72.8158   26.3909  -73.3679 H         1 UNK         0.0784 
     94 H94       -72.2017   24.7509  -73.5697 H         1 UNK         0.0784 
     95 H95       -71.1212   26.0442  -73.0752 H         1 UNK         0.0784 
     96 H96       -73.6538   25.5996  -75.6148 H         1 UNK         0.3213 
     97 H97       -73.8143   25.3903  -79.1176 H         1 UNK         0.0855 
     98 H98       -74.0352   22.8966  -77.3404 H         1 UNK         0.0814 
     99 H99       -73.0339   23.0316  -78.7804 H         1 UNK         0.0814 
    100 H100      -74.7821   23.1102  -78.9236 H         1 UNK         0.0814 
    101 H101      -75.7037   24.6800  -77.0757 H         1 UNK         0.3105 
    102 H102      -76.4751   27.8189  -75.8725 H         1 UNK         0.0547 
    103 H103      -77.7610   28.1506  -77.9812 H         1 UNK         0.0837 
    104 H104      -78.2575   26.4642  -77.9654 H         1 UNK         0.0837 
    105 H105      -78.8137   27.5624  -76.7035 H         1 UNK         0.0837 
    106 H106      -78.0332   25.5058  -75.6360 H         1 UNK         0.3020 
    107 H107      -76.1153   23.8114  -73.1371 H         1 UNK         0.1245 
    108 H108      -78.8637   24.1669  -72.7236 H         1 UNK         0.0781 
    109 H109      -78.3951   25.7894  -73.0808 H         1 UNK         0.0781 
    110 H110      -75.2622   25.8079  -71.6824 H         1 UNK         0.0836 
    111 H111      -75.7210   26.3948  -70.1083 H         1 UNK         0.0836 
    112 H112      -78.4224   23.3493  -74.8976 H         1 UNK         0.3022 
    113 H113      -76.7503   21.0110  -76.9063 H         1 UNK         0.0747 
    114 H114      -78.3905   19.3163  -76.1167 H         1 UNK         0.0793 
    115 H115      -77.1067   19.5152  -74.9366 H         1 UNK         0.0793 
    116 H116      -78.6792   20.2449  -74.6441 H         1 UNK         0.0793 
    117 H117      -79.5346   21.6171  -76.5249 H         1 UNK         0.3047 
    118 H118      -79.6201   24.5550  -78.5146 H         1 UNK         0.0822 
    119 H119      -81.2670   23.2511  -79.8177 H         1 UNK         0.0807 
    120 H120      -80.6764   21.7415  -79.1214 H         1 UNK         0.0807 
    121 H121      -79.6453   22.6899  -80.1836 H         1 UNK         0.0807 
    122 H122      -81.7706   23.2078  -77.3637 H         1 UNK         0.2946 
    123 H123      -82.8755   24.3119  -75.6552 H         1 UNK         0.1144 
    124 H124      -82.8163   23.0755  -73.4718 H         1 UNK         0.0793 
    125 H125      -81.0543   23.0438  -73.5197 H         1 UNK         0.0793 
    126 H126      -81.9885   22.1610  -74.7193 H         1 UNK         0.0793 
    127 H127      -81.6691   25.4198  -73.2632 H         1 UNK         0.2896 
@<TRIPOS>BOND
     1    1    2 1    
     2    1   67 1    
     3    1   68 1    
     4    1   69 1    
     5    2    3 2    
     6    2    4 am   BACKBONE|DICT|INTERRES
     7    4    5 1    
     8    4   70 1    
     9    5    6 1    
    10    5   65 1    
    11    5   71 1    
    12    6    7 1    
    13    6   72 1    
    14    6   73 1    
    15    7    8 1    
    16    8    9 1    
    17    8   74 1    
    18    8   75 1    
    19    9   10 ar   
    20    9   14 ar   
    21   10   11 ar   
    22   10   76 1    
    23   11   12 ar   
    24   11   48 1    
    25   12   13 ar   
    26   12   77 1    
    27   13   14 ar   
    28   13   15 1    
    29   14   78 1    
    30   15   16 1    
    31   15   79 1    
    32   15   80 1    
    33   16   17 1    
    34   17   18 1    
    35   17   81 1    
    36   17   82 1    
    37   18   19 1    
    38   18   22 1    
    39   18   83 1    
    40   19   20 am   BACKBONE|DICT|INTERRES
    41   19   21 2    
    42   20   84 1    
    43   20   85 1    
    44   22   23 am   BACKBONE|DICT|INTERRES
    45   22   86 1    
    46   23   24 2    
    47   23   25 1    
    48   25   26 1    
    49   25   27 1    
    50   25   87 1    
    51   26   88 1    
    52   26   89 1    
    53   26   90 1    
    54   27   28 am   BACKBONE|DICT|INTERRES
    55   27   91 1    
    56   28   29 2    
    57   28   30 1    
    58   30   31 1    
    59   30   32 1    
    60   30   92 1    
    61   31   93 1    
    62   31   94 1    
    63   31   95 1    
    64   32   33 am   BACKBONE|DICT|INTERRES
    65   32   96 1    
    66   33   34 2    
    67   33   35 1    
    68   35   36 1    
    69   35   37 1    
    70   35   97 1    
    71   36   98 1    
    72   36   99 1    
    73   36  100 1    
    74   37   38 am   BACKBONE|DICT|INTERRES
    75   37  101 1    
    76   38   39 2    
    77   38   40 1    
    78   40   41 1    
    79   40   42 1    
    80   40  102 1    
    81   41  103 1    
    82   41  104 1    
    83   41  105 1    
    84   42   43 am   BACKBONE|DICT|INTERRES
    85   42  106 1    
    86   43   44 2    
    87   43   45 1    
    88   45   46 1    
    89   45   49 1    
    90   45  107 1    
    91   46   47 1    
    92   46  108 1    
    93   46  109 1    
    94   47   48 1    
    95   48  110 1    
    96   48  111 1    
    97   49   50 am   BACKBONE|DICT|INTERRES
    98   49  112 1    
    99   50   51 2    
   100   50   52 1    
   101   52   53 1    
   102   52   54 1    
   103   52  113 1    
   104   53  114 1    
   105   53  115 1    
   106   53  116 1    
   107   54   55 am   BACKBONE|DICT|INTERRES
   108   54  117 1    
   109   55   56 2    
   110   55   57 1    
   111   57   58 1    
   112   57   59 1    
   113   57  118 1    
   114   58  119 1    
   115   58  120 1    
   116   58  121 1    
   117   59   60 am   BACKBONE|DICT|INTERRES
   118   59  122 1    
   119   60   61 2    
   120   60   62 1    
   121   62   63 1    
   122   62   64 1    
   123   62  123 1    
   124   63  124 1    
   125   63  125 1    
   126   63  126 1    
   127   64   65 am   BACKBONE|DICT|INTERRES
   128   64  127 1    
   129   65   66 2    
@<TRIPOS>SUBSTRUCTURE
     1 UNK         1 GROUP             0       ****    0 ROOT    
