@<TRIPOS>MOLECULE
3R135
127   129    1
SMALL
USER_CHARGES


@<TRIPOS>ATOM
      1 CA        -75.0762   24.1826  -70.6828 C.3       0 UNK        -0.1998 
      2 C         -76.4713   24.7845  -70.6091 C.2       0 UNK         0.4909 
      3 O         -76.6738   25.7792  -69.9125 O.2       0 UNK        -0.5240 
      4 N         -77.4320   24.1954  -71.3269 N.am      1 UNK        -0.4739 
      5 CA        -78.8252   24.6296  -71.3956 C.3       1 UNK         0.0864 
      6 C6        -78.9991   25.8569  -72.3298 C.3       11 UNK        -0.0881 
      7 S7        -80.5437   26.7807  -72.0141 S.3       11 UNK        -0.2682 
      8 C8        -79.9194   28.3504  -71.3342 C.3       11 UNK         0.0289 
      9 C9        -79.0983   29.1208  -72.3578 C.ar      11 UNK        -0.0687 
     10 C10       -79.7109   29.6529  -73.4956 C.ar      11 UNK        -0.0823 
     11 C11       -78.9566   30.3314  -74.4570 C.ar      11 UNK        -0.0830 
     12 C12       -77.5794   30.4881  -74.2673 C.ar      11 UNK        -0.1021 
     13 C13       -76.9589   29.9642  -73.1292 C.ar      11 UNK        -0.0753 
     14 C14       -77.7230   29.2862  -72.1763 C.ar      11 UNK        -0.0933 
     15 C15       -75.4589   30.0985  -72.9372 C.3       11 UNK         0.0166 
     16 S16       -75.0220   31.6838  -72.1646 S.3       11 UNK        -0.2615 
     17 C17       -73.4779   31.2509  -71.2890 C.3       11 UNK        -0.0865 
     18 CA        -72.2251   31.2922  -72.2032 C.3       10 UNK         0.0862 
     19 C         -70.9118   31.3047  -71.3669 C.2       10 UNK         0.5551 
     20 N         -70.0113   30.3409  -71.5212 N.am      10 UNK        -0.7319 
     21 O         -70.7002   32.2162  -70.5708 O.2       10 UNK        -0.5018 
     22 N         -72.2639   30.2203  -73.2111 N.am      10 UNK        -0.4509 
     23 C         -71.8186   30.3220  -74.4655 C.2       10 UNK         0.4899 
     24 O         -71.3613   31.3608  -74.9432 O.2       10 UNK        -0.4839 
     25 CA        -71.8850   29.0682  -75.3581 C.3       9 UNK         0.0222 
     26 CB        -70.5092   28.3787  -75.4314 C.3       9 UNK        -0.1966 
     27 N         -72.9385   28.0873  -75.0529 N.am      9 UNK        -0.4218 
     28 C         -73.0926   27.2948  -73.9808 C.2       9 UNK         0.5020 
     29 O         -72.4476   27.4139  -72.9387 O.2       9 UNK        -0.5274 
     30 CA        -74.1245   26.1557  -74.1034 C.3       8 UNK         0.0270 
     31 CB        -75.5325   26.6230  -73.7081 C.3       8 UNK        -0.1976 
     32 N         -74.1672   25.5746  -75.4479 N.am      8 UNK        -0.4313 
     33 C         -73.1579   24.9024  -76.0226 C.2       8 UNK         0.5041 
     34 O         -72.1083   24.6105  -75.4483 O.2       8 UNK        -0.5577 
     35 CA        -73.3404   24.5118  -77.4962 C.3       7 UNK         0.0284 
     36 CB        -74.1241   23.1954  -77.6188 C.3       7 UNK        -0.1958 
     37 N         -74.0183   25.5743  -78.2430 N.am      7 UNK        -0.4454 
     38 C         -73.3990   26.6599  -78.7295 C.2       7 UNK         0.5089 
     39 O         -72.1822   26.8367  -78.6711 O.2       7 UNK        -0.5125 
     40 CA        -74.2766   27.7393  -79.3907 C.3       6 UNK         0.0408 
     41 CB        -74.3529   27.5094  -80.9082 C.3       6 UNK        -0.1791 
     42 N         -75.6345   27.8149  -78.8446 N.am      6 UNK        -0.4762 
     43 C         -75.9394   28.2301  -77.6057 C.2       6 UNK         0.5007 
     44 O         -75.1013   28.6083  -76.7888 O.2       6 UNK        -0.5032 
     45 CA        -77.4270   28.1702  -77.1966 C.3       5 UNK         0.0783 
     46 C46       -78.1306   29.4809  -77.6254 C.3       11 UNK        -0.0857 
     47 S47       -79.8323   29.6139  -76.9850 S.3       11 UNK        -0.2512 
     48 C48       -79.6394   30.8880  -75.6970 C.3       11 UNK         0.0225 
     49 N         -78.1188   26.9771  -77.7121 N.am      5 UNK        -0.4615 
     50 C         -77.7147   25.7092  -77.5536 C.2       4 UNK         0.5053 
     51 O         -76.7045   25.3906  -76.9220 O.2       4 UNK        -0.5105 
     52 CA        -78.5491   24.6395  -78.2819 C.3       4 UNK         0.0263 
     53 CB        -77.7147   23.3908  -78.6375 C.3       4 UNK        -0.1981 
     54 N         -79.7698   24.2546  -77.5629 N.am      4 UNK        -0.4224 
     55 C         -79.8638   23.7117  -76.3400 C.2       3 UNK         0.4895 
     56 O         -78.9126   23.5278  -75.5776 O.2       3 UNK        -0.5091 
     57 CA        -81.2666   23.2471  -75.9226 C.3       3 UNK         0.0250 
     58 CB        -81.6863   21.9869  -76.7067 C.3       3 UNK        -0.1996 
     59 N         -81.2640   22.9658  -74.4904 N.am      3 UNK        -0.4254 
     60 C         -82.3333   22.8776  -73.6931 C.2       2 UNK         0.5004 
     61 O         -83.4931   22.9722  -74.0966 O.2       2 UNK        -0.5226 
     62 CA        -82.0813   22.6909  -72.1846 C.3       2 UNK         0.0269 
     63 CB        -81.8995   21.2044  -71.8173 C.3       2 UNK        -0.1926 
     64 N         -80.9964   23.5391  -71.6657 N.am      2 UNK        -0.4687 
     65 C         -79.6751   23.4365  -71.8652 C.2       1 UNK         0.5165 
     66 O         -79.1348   22.4895  -72.4430 O.2       1 UNK        -0.5079 
     67 H67       -75.0088   23.4044  -71.4429 H         1 UNK         0.0900 
     68 H68       -74.3468   24.9553  -70.9249 H         1 UNK         0.0900 
     69 H69       -74.8044   23.7468  -69.7218 H         1 UNK         0.0900 
     70 H70       -77.2488   23.3514  -71.8577 H         1 UNK         0.2959 
     71 H71       -79.1432   24.8888  -70.3828 H         1 UNK         0.1079 
     72 H72       -78.9671   25.5637  -73.3816 H         1 UNK         0.0837 
     73 H73       -78.1590   26.5375  -72.1999 H         1 UNK         0.0837 
     74 H74       -79.3346   28.1438  -70.4361 H         1 UNK         0.0685 
     75 H75       -80.7654   28.9623  -71.0183 H         1 UNK         0.0685 
     76 H76       -80.7742   29.5190  -73.6416 H         1 UNK         0.1434 
     77 H77       -76.9862   31.0107  -75.0052 H         1 UNK         0.1329 
     78 H78       -77.2426   28.8720  -71.2999 H         1 UNK         0.1335 
     79 H79       -75.0892   29.2767  -72.3238 H         1 UNK         0.0680 
     80 H80       -74.9568   30.0158  -73.9021 H         1 UNK         0.0680 
     81 H81       -73.5787   30.2763  -70.8082 H         1 UNK         0.1032 
     82 H82       -73.3770   31.9703  -70.4738 H         1 UNK         0.1032 
     83 H83       -72.2404   32.2531  -72.7212 H         1 UNK         0.0461 
     84 H84       -70.1785   29.5873  -72.1685 H         1 UNK         0.3453 
     85 H85       -69.1627   30.3642  -70.9780 H         1 UNK         0.3453 
     86 H86       -72.5282   29.2945  -72.8870 H         1 UNK         0.2984 
     87 H87       -72.1210   29.4269  -76.3613 H         1 UNK         0.0554 
     88 H88       -69.7359   29.0793  -75.7494 H         1 UNK         0.0847 
     89 H89       -70.5182   27.5587  -76.1503 H         1 UNK         0.0847 
     90 H90       -70.2044   27.9737  -74.4661 H         1 UNK         0.0847 
     91 H91       -73.6390   28.0004  -75.7863 H         1 UNK         0.3141 
     92 H92       -73.8235   25.3641  -73.4143 H         1 UNK         0.0743 
     93 H93       -75.5532   26.9648  -72.6732 H         1 UNK         0.0784 
     94 H94       -75.8783   27.4442  -74.3355 H         1 UNK         0.0784 
     95 H95       -76.2563   25.8122  -73.7946 H         1 UNK         0.0784 
     96 H96       -75.0285   25.6910  -75.9759 H         1 UNK         0.3213 
     97 H97       -72.3496   24.3528  -77.9283 H         1 UNK         0.0855 
     98 H98       -75.0974   23.2554  -77.1321 H         1 UNK         0.0814 
     99 H99       -73.5791   22.3773  -77.1463 H         1 UNK         0.0814 
    100 H100      -74.2824   22.9200  -78.6614 H         1 UNK         0.0814 
    101 H101      -75.0291   25.5364  -78.2693 H         1 UNK         0.3105 
    102 H102      -73.7934   28.7035  -79.2179 H         1 UNK         0.0547 
    103 H103      -73.3549   27.4770  -81.3479 H         1 UNK         0.0837 
    104 H104      -74.8456   26.5672  -81.1514 H         1 UNK         0.0837 
    105 H105      -74.8966   28.3127  -81.4056 H         1 UNK         0.0837 
    106 H106      -76.3872   27.5199  -79.4499 H         1 UNK         0.3020 
    107 H107      -77.4522   28.1062  -76.1066 H         1 UNK         0.1245 
    108 H108      -78.1767   29.5501  -78.7140 H         1 UNK         0.0781 
    109 H109      -77.5598   30.3525  -77.2996 H         1 UNK         0.0781 
    110 H110      -80.6271   31.2667  -75.4294 H         1 UNK         0.0836 
    111 H111      -79.0893   31.7428  -76.0936 H         1 UNK         0.0836 
    112 H112      -78.9716   27.1555  -78.2229 H         1 UNK         0.3022 
    113 H113      -78.8743   25.0804  -79.2256 H         1 UNK         0.0747 
    114 H114      -78.2877   22.6943  -79.2494 H         1 UNK         0.0793 
    115 H115      -77.3838   22.8550  -77.7476 H         1 UNK         0.0793 
    116 H116      -76.8243   23.6631  -79.2052 H         1 UNK         0.0793 
    117 H117      -80.6270   24.3769  -78.0844 H         1 UNK         0.3047 
    118 H118      -81.9702   24.0587  -76.1205 H         1 UNK         0.0822 
    119 H119      -82.6906   21.6617  -76.4350 H         1 UNK         0.0807 
    120 H120      -81.0051   21.1556  -76.5205 H         1 UNK         0.0807 
    121 H121      -81.6914   22.1700  -77.7817 H         1 UNK         0.0807 
    122 H122      -80.3364   22.8818  -74.0814 H         1 UNK         0.2946 
    123 H123      -82.9853   23.0370  -71.6799 H         1 UNK         0.1144 
    124 H124      -82.7884   20.6312  -72.0838 H         1 UNK         0.0793 
    125 H125      -81.7400   21.0761  -70.7468 H         1 UNK         0.0793 
    126 H126      -81.0584   20.7492  -72.3405 H         1 UNK         0.0793 
    127 H127      -81.3166   24.3917  -71.2240 H         1 UNK         0.2896 
@<TRIPOS>BOND
     1    1    2 1    
     2    1   67 1    
     3    1   68 1    
     4    1   69 1    
     5    2    3 2    
     6    2    4 am   BACKBONE|DICT|INTERRES
     7    4    5 1    
     8    4   70 1    
     9    5    6 1    
    10    5   65 1    
    11    5   71 1    
    12    6    7 1    
    13    6   72 1    
    14    6   73 1    
    15    7    8 1    
    16    8    9 1    
    17    8   74 1    
    18    8   75 1    
    19    9   10 ar   
    20    9   14 ar   
    21   10   11 ar   
    22   10   76 1    
    23   11   12 ar   
    24   11   48 1    
    25   12   13 ar   
    26   12   77 1    
    27   13   14 ar   
    28   13   15 1    
    29   14   78 1    
    30   15   16 1    
    31   15   79 1    
    32   15   80 1    
    33   16   17 1    
    34   17   18 1    
    35   17   81 1    
    36   17   82 1    
    37   18   19 1    
    38   18   22 1    
    39   18   83 1    
    40   19   20 am   BACKBONE|DICT|INTERRES
    41   19   21 2    
    42   20   84 1    
    43   20   85 1    
    44   22   23 am   BACKBONE|DICT|INTERRES
    45   22   86 1    
    46   23   24 2    
    47   23   25 1    
    48   25   26 1    
    49   25   27 1    
    50   25   87 1    
    51   26   88 1    
    52   26   89 1    
    53   26   90 1    
    54   27   28 am   BACKBONE|DICT|INTERRES
    55   27   91 1    
    56   28   29 2    
    57   28   30 1    
    58   30   31 1    
    59   30   32 1    
    60   30   92 1    
    61   31   93 1    
    62   31   94 1    
    63   31   95 1    
    64   32   33 am   BACKBONE|DICT|INTERRES
    65   32   96 1    
    66   33   34 2    
    67   33   35 1    
    68   35   36 1    
    69   35   37 1    
    70   35   97 1    
    71   36   98 1    
    72   36   99 1    
    73   36  100 1    
    74   37   38 am   BACKBONE|DICT|INTERRES
    75   37  101 1    
    76   38   39 2    
    77   38   40 1    
    78   40   41 1    
    79   40   42 1    
    80   40  102 1    
    81   41  103 1    
    82   41  104 1    
    83   41  105 1    
    84   42   43 am   BACKBONE|DICT|INTERRES
    85   42  106 1    
    86   43   44 2    
    87   43   45 1    
    88   45   46 1    
    89   45   49 1    
    90   45  107 1    
    91   46   47 1    
    92   46  108 1    
    93   46  109 1    
    94   47   48 1    
    95   48  110 1    
    96   48  111 1    
    97   49   50 am   BACKBONE|DICT|INTERRES
    98   49  112 1    
    99   50   51 2    
   100   50   52 1    
   101   52   53 1    
   102   52   54 1    
   103   52  113 1    
   104   53  114 1    
   105   53  115 1    
   106   53  116 1    
   107   54   55 am   BACKBONE|DICT|INTERRES
   108   54  117 1    
   109   55   56 2    
   110   55   57 1    
   111   57   58 1    
   112   57   59 1    
   113   57  118 1    
   114   58  119 1    
   115   58  120 1    
   116   58  121 1    
   117   59   60 am   BACKBONE|DICT|INTERRES
   118   59  122 1    
   119   60   61 2    
   120   60   62 1    
   121   62   63 1    
   122   62   64 1    
   123   62  123 1    
   124   63  124 1    
   125   63  125 1    
   126   63  126 1    
   127   64   65 am   BACKBONE|DICT|INTERRES
   128   64  127 1    
   129   65   66 2    
@<TRIPOS>SUBSTRUCTURE
     1 UNK         1 GROUP             0       ****    0 ROOT    
