@<TRIPOS>MOLECULE
3R135
127   129    1
SMALL
USER_CHARGES


@<TRIPOS>ATOM
      1 CA        -84.0457   24.7515  -73.1558 C.3       0 UNK        -0.1998 
      2 C         -82.9224   25.6134  -73.7096 C.2       0 UNK         0.4909 
      3 O         -81.7610   25.2070  -73.6617 O.2       0 UNK        -0.5240 
      4 N         -83.2580   26.7842  -74.2726 N.am      1 UNK        -0.4739 
      5 CA        -82.3574   27.8254  -74.8061 C.3       1 UNK         0.0864 
      6 C6        -81.4155   28.3936  -73.7081 C.3       11 UNK        -0.0881 
      7 S7        -80.9359   30.1299  -74.0070 S.3       11 UNK        -0.2682 
      8 C8        -80.3210   30.6311  -72.3688 C.3       11 UNK         0.0289 
      9 C9        -78.9783   29.9928  -72.0420 C.ar      11 UNK        -0.0687 
     10 C10       -78.9248   28.8024  -71.3102 C.ar      11 UNK        -0.0823 
     11 C11       -77.6941   28.2221  -70.9923 C.ar      11 UNK        -0.0830 
     12 C12       -76.5170   28.8465  -71.4052 C.ar      11 UNK        -0.1021 
     13 C13       -76.5492   30.0242  -72.1548 C.ar      11 UNK        -0.0753 
     14 C14       -77.7882   30.5963  -72.4649 C.ar      11 UNK        -0.0933 
     15 C15       -75.2594   30.6442  -72.6851 C.3       11 UNK         0.0166 
     16 S16       -74.0522   31.0662  -71.3851 S.3       11 UNK        -0.2615 
     17 C17       -72.9731   29.5872  -71.3150 C.3       11 UNK        -0.0865 
     18 CA        -71.7422   29.6932  -72.2541 C.3       10 UNK         0.0862 
     19 C         -70.6257   28.6705  -71.8834 C.2       10 UNK         0.5551 
     20 N         -70.0187   27.9609  -72.8284 N.am      10 UNK        -0.7319 
     21 O         -70.2867   28.5272  -70.7113 O.2       10 UNK        -0.5018 
     22 N         -72.1541   29.6046  -73.6627 N.am      10 UNK        -0.4509 
     23 C         -71.6669   30.3554  -74.6561 C.2       10 UNK         0.4899 
     24 O         -70.8526   31.2662  -74.4946 O.2       10 UNK        -0.4839 
     25 CA        -72.1735   30.0129  -76.0708 C.3       9 UNK         0.0222 
     26 CB        -71.3445   30.6852  -77.1854 C.3       9 UNK        -0.1966 
     27 N         -72.2840   28.5684  -76.3147 N.am      9 UNK        -0.4218 
     28 C         -71.3091   27.6480  -76.2229 C.2       9 UNK         0.5020 
     29 O         -70.1597   27.9119  -75.8666 O.2       9 UNK        -0.5274 
     30 CA        -71.6566   26.1792  -76.5443 C.3       8 UNK         0.0270 
     31 CB        -71.4219   25.2892  -75.3112 C.3       8 UNK        -0.1976 
     32 N         -73.0299   25.9794  -77.0098 N.am      8 UNK        -0.4313 
     33 C         -73.5075   26.3141  -78.2154 C.2       8 UNK         0.5041 
     34 O         -72.8126   26.7483  -79.1341 O.2       8 UNK        -0.5577 
     35 CA        -75.0320   26.2067  -78.3975 C.3       7 UNK         0.0284 
     36 CB        -75.4379   24.7999  -78.8669 C.3       7 UNK        -0.1958 
     37 N         -75.7628   26.5538  -77.1725 N.am      7 UNK        -0.4454 
     38 C         -75.8061   27.7842  -76.6401 C.2       7 UNK         0.5089 
     39 O         -75.2602   28.7648  -77.1440 O.2       7 UNK        -0.5125 
     40 CA        -76.5372   27.9408  -75.2988 C.3       6 UNK         0.0408 
     41 CB        -78.0412   28.1313  -75.5119 C.3       6 UNK        -0.1791 
     42 N         -76.3118   26.8144  -74.3931 N.am      6 UNK        -0.4762 
     43 C         -75.1596   26.5694  -73.7547 C.2       6 UNK         0.5007 
     44 O         -74.1669   27.2982  -73.8259 O.2       6 UNK        -0.5032 
     45 CA        -75.0903   25.2551  -72.9464 C.3       5 UNK         0.0783 
     46 C46       -75.5716   25.4161  -71.4810 C.3       11 UNK        -0.0857 
     47 S47       -77.3935   25.4813  -71.2855 S.3       11 UNK        -0.2512 
     48 C48       -77.6316   26.9250  -70.2004 C.3       11 UNK         0.0225 
     49 N         -75.7569   24.1237  -73.6043 N.am      5 UNK        -0.4615 
     50 C         -75.4378   23.6222  -74.8034 C.2       4 UNK         0.5053 
     51 O         -74.5888   24.1108  -75.5453 O.2       4 UNK        -0.5105 
     52 CA        -76.2150   22.3836  -75.2524 C.3       4 UNK         0.0263 
     53 CB        -75.7676   21.1528  -74.4347 C.3       4 UNK        -0.1981 
     54 N         -77.6560   22.6251  -75.1401 N.am      4 UNK        -0.4224 
     55 C         -78.6176   21.8065  -75.5853 C.2       3 UNK         0.4895 
     56 O         -78.4086   20.7234  -76.1333 O.2       3 UNK        -0.5091 
     57 CA        -80.0673   22.2824  -75.3931 C.3       3 UNK         0.0250 
     58 CB        -80.5055   22.1191  -73.9278 C.3       3 UNK        -0.1996 
     59 N         -80.3094   23.6626  -75.8304 N.am      3 UNK        -0.4254 
     60 C         -80.2151   24.0844  -77.1051 C.2       2 UNK         0.5004 
     61 O         -79.8068   23.3710  -78.0220 O.2       2 UNK        -0.5226 
     62 CA        -80.6835   25.5151  -77.4390 C.3       2 UNK         0.0269 
     63 CB        -81.5517   25.5484  -78.7141 C.3       2 UNK        -0.1926 
     64 N         -81.4150   26.1193  -76.3259 N.am      2 UNK        -0.4687 
     65 C         -81.5826   27.4238  -76.0896 C.2       1 UNK         0.5165 
     66 O         -81.1704   28.2989  -76.8517 O.2       1 UNK        -0.5079 
     67 H67       -83.8884   24.5725  -72.0926 H         1 UNK         0.0900 
     68 H68       -85.0210   25.2215  -73.2807 H         1 UNK         0.0900 
     69 H69       -84.0643   23.7879  -73.6642 H         1 UNK         0.0900 
     70 H70       -84.2394   27.0236  -74.3207 H         1 UNK         0.2959 
     71 H71       -83.0290   28.6281  -75.1157 H         1 UNK         0.1079 
     72 H72       -81.9239   28.3674  -72.7430 H         1 UNK         0.0837 
     73 H73       -80.5275   27.7714  -73.5871 H         1 UNK         0.0837 
     74 H74       -80.2217   31.7175  -72.3510 H         1 UNK         0.0685 
     75 H75       -81.0607   30.3839  -71.6057 H         1 UNK         0.0685 
     76 H76       -79.8419   28.3272  -70.9899 H         1 UNK         0.1434 
     77 H77       -75.5729   28.4000  -71.1519 H         1 UNK         0.1329 
     78 H78       -77.8316   31.5059  -73.0482 H         1 UNK         0.1335 
     79 H79       -74.8030   29.9640  -73.4014 H         1 UNK         0.0680 
     80 H80       -75.4824   31.5566  -73.2399 H         1 UNK         0.0680 
     81 H81       -72.6590   29.4886  -70.2743 H         1 UNK         0.1032 
     82 H82       -73.5270   28.6792  -71.5437 H         1 UNK         0.1032 
     83 H83       -71.2892   30.6702  -72.0766 H         1 UNK         0.0461 
     84 H84       -69.2945   27.3135  -72.5621 H         1 UNK         0.3453 
     85 H85       -70.2338   28.0969  -73.8088 H         1 UNK         0.3453 
     86 H86       -72.7958   28.8497  -73.8841 H         1 UNK         0.2984 
     87 H87       -73.1882   30.4087  -76.1310 H         1 UNK         0.0554 
     88 H88       -71.3574   31.7710  -77.0834 H         1 UNK         0.0847 
     89 H89       -71.7430   30.4494  -78.1722 H         1 UNK         0.0847 
     90 H90       -70.3014   30.3682  -77.1603 H         1 UNK         0.0847 
     91 H91       -73.2050   28.2549  -76.5958 H         1 UNK         0.3141 
     92 H92       -70.9786   25.8537  -77.3359 H         1 UNK         0.0743 
     93 H93       -72.0503   25.5910  -74.4729 H         1 UNK         0.0784 
     94 H94       -71.6347   24.2425  -75.5296 H         1 UNK         0.0784 
     95 H95       -70.3850   25.3448  -74.9769 H         1 UNK         0.0784 
     96 H96       -73.6671   25.5306  -76.3548 H         1 UNK         0.3213 
     97 H97       -75.3219   26.9193  -79.1730 H         1 UNK         0.0855 
     98 H98       -75.1614   24.0316  -78.1448 H         1 UNK         0.0814 
     99 H99       -74.9461   24.5500  -79.8080 H         1 UNK         0.0814 
    100 H100      -76.5127   24.7308  -79.0362 H         1 UNK         0.0814 
    101 H101      -76.1884   25.7938  -76.6641 H         1 UNK         0.3105 
    102 H102      -76.1569   28.8457  -74.8260 H         1 UNK         0.0547 
    103 H103      -78.2445   28.9480  -76.2060 H         1 UNK         0.0837 
    104 H104      -78.5128   27.2344  -75.9105 H         1 UNK         0.0837 
    105 H105      -78.5288   28.3826  -74.5719 H         1 UNK         0.0837 
    106 H106      -77.0849   26.1869  -74.2311 H         1 UNK         0.3020 
    107 H107      -74.0286   25.0001  -72.9061 H         1 UNK         0.1245 
    108 H108      -75.0949   26.2736  -71.0076 H         1 UNK         0.0781 
    109 H109      -75.2269   24.5569  -70.9035 H         1 UNK         0.0781 
    110 H110      -76.8365   26.9713  -69.4546 H         1 UNK         0.0836 
    111 H111      -78.5580   26.7867  -69.6408 H         1 UNK         0.0836 
    112 H112      -76.4552   23.6532  -73.0466 H         1 UNK         0.3022 
    113 H113      -75.9799   22.2101  -76.3046 H         1 UNK         0.0747 
    114 H114      -76.1662   20.2265  -74.8475 H         1 UNK         0.0793 
    115 H115      -74.6809   21.0553  -74.4375 H         1 UNK         0.0793 
    116 H116      -76.0875   21.2174  -73.3942 H         1 UNK         0.0793 
    117 H117      -77.9337   23.5087  -74.7382 H         1 UNK         0.3047 
    118 H118      -80.7010   21.6340  -76.0024 H         1 UNK         0.0822 
    119 H119      -80.3280   21.1018  -73.5759 H         1 UNK         0.0807 
    120 H120      -81.5706   22.3192  -73.8096 H         1 UNK         0.0807 
    121 H121      -79.9656   22.7948  -73.2631 H         1 UNK         0.0807 
    122 H122      -80.6309   24.3013  -75.1112 H         1 UNK         0.2946 
    123 H123      -79.7802   26.0998  -77.6235 H         1 UNK         0.1144 
    124 H124      -81.8345   26.5670  -78.9799 H         1 UNK         0.0793 
    125 H125      -82.4668   24.9686  -78.5894 H         1 UNK         0.0793 
    126 H126      -81.0156   25.1354  -79.5695 H         1 UNK         0.0793 
    127 H127      -81.7806   25.4884  -75.6226 H         1 UNK         0.2896 
@<TRIPOS>BOND
     1    1    2 1    
     2    1   67 1    
     3    1   68 1    
     4    1   69 1    
     5    2    3 2    
     6    2    4 am   BACKBONE|DICT|INTERRES
     7    4    5 1    
     8    4   70 1    
     9    5    6 1    
    10    5   65 1    
    11    5   71 1    
    12    6    7 1    
    13    6   72 1    
    14    6   73 1    
    15    7    8 1    
    16    8    9 1    
    17    8   74 1    
    18    8   75 1    
    19    9   10 ar   
    20    9   14 ar   
    21   10   11 ar   
    22   10   76 1    
    23   11   12 ar   
    24   11   48 1    
    25   12   13 ar   
    26   12   77 1    
    27   13   14 ar   
    28   13   15 1    
    29   14   78 1    
    30   15   16 1    
    31   15   79 1    
    32   15   80 1    
    33   16   17 1    
    34   17   18 1    
    35   17   81 1    
    36   17   82 1    
    37   18   19 1    
    38   18   22 1    
    39   18   83 1    
    40   19   20 am   BACKBONE|DICT|INTERRES
    41   19   21 2    
    42   20   84 1    
    43   20   85 1    
    44   22   23 am   BACKBONE|DICT|INTERRES
    45   22   86 1    
    46   23   24 2    
    47   23   25 1    
    48   25   26 1    
    49   25   27 1    
    50   25   87 1    
    51   26   88 1    
    52   26   89 1    
    53   26   90 1    
    54   27   28 am   BACKBONE|DICT|INTERRES
    55   27   91 1    
    56   28   29 2    
    57   28   30 1    
    58   30   31 1    
    59   30   32 1    
    60   30   92 1    
    61   31   93 1    
    62   31   94 1    
    63   31   95 1    
    64   32   33 am   BACKBONE|DICT|INTERRES
    65   32   96 1    
    66   33   34 2    
    67   33   35 1    
    68   35   36 1    
    69   35   37 1    
    70   35   97 1    
    71   36   98 1    
    72   36   99 1    
    73   36  100 1    
    74   37   38 am   BACKBONE|DICT|INTERRES
    75   37  101 1    
    76   38   39 2    
    77   38   40 1    
    78   40   41 1    
    79   40   42 1    
    80   40  102 1    
    81   41  103 1    
    82   41  104 1    
    83   41  105 1    
    84   42   43 am   BACKBONE|DICT|INTERRES
    85   42  106 1    
    86   43   44 2    
    87   43   45 1    
    88   45   46 1    
    89   45   49 1    
    90   45  107 1    
    91   46   47 1    
    92   46  108 1    
    93   46  109 1    
    94   47   48 1    
    95   48  110 1    
    96   48  111 1    
    97   49   50 am   BACKBONE|DICT|INTERRES
    98   49  112 1    
    99   50   51 2    
   100   50   52 1    
   101   52   53 1    
   102   52   54 1    
   103   52  113 1    
   104   53  114 1    
   105   53  115 1    
   106   53  116 1    
   107   54   55 am   BACKBONE|DICT|INTERRES
   108   54  117 1    
   109   55   56 2    
   110   55   57 1    
   111   57   58 1    
   112   57   59 1    
   113   57  118 1    
   114   58  119 1    
   115   58  120 1    
   116   58  121 1    
   117   59   60 am   BACKBONE|DICT|INTERRES
   118   59  122 1    
   119   60   61 2    
   120   60   62 1    
   121   62   63 1    
   122   62   64 1    
   123   62  123 1    
   124   63  124 1    
   125   63  125 1    
   126   63  126 1    
   127   64   65 am   BACKBONE|DICT|INTERRES
   128   64  127 1    
   129   65   66 2    
@<TRIPOS>SUBSTRUCTURE
     1 UNK         1 GROUP             0       ****    0 ROOT    
