@<TRIPOS>MOLECULE
3R135
127   129    1
SMALL
USER_CHARGES


@<TRIPOS>ATOM
      1 CA        -80.2586   24.8837  -69.8487 C.3       0 UNK        -0.1998 
      2 C         -81.3983   25.4884  -70.6548 C.2       0 UNK         0.4909 
      3 O         -82.5153   25.5950  -70.1475 O.2       0 UNK        -0.5240 
      4 N         -81.1289   25.8735  -71.9060 N.am      1 UNK        -0.4739 
      5 CA        -82.1243   26.3700  -72.8551 C.3       1 UNK         0.0864 
      6 C6        -82.4734   27.8792  -72.6759 C.3       11 UNK        -0.0881 
      7 S7        -81.0807   29.0433  -72.9049 S.3       11 UNK        -0.2682 
      8 C8        -80.6953   29.5599  -71.2036 C.3       11 UNK         0.0289 
      9 C9        -79.1916   29.5521  -70.9951 C.ar      11 UNK        -0.0687 
     10 C10       -78.5723   28.4131  -70.4775 C.ar      11 UNK        -0.0823 
     11 C11       -77.1824   28.3521  -70.3634 C.ar      11 UNK        -0.0830 
     12 C12       -76.4118   29.4573  -70.7326 C.ar      11 UNK        -0.1021 
     13 C13       -77.0194   30.6028  -71.2539 C.ar      11 UNK        -0.0753 
     14 C14       -78.4123   30.6504  -71.3735 C.ar      11 UNK        -0.0933 
     15 C15       -76.1639   31.7753  -71.7103 C.3       11 UNK         0.0166 
     16 S16       -76.0375   31.8906  -73.5272 S.3       11 UNK        -0.2615 
     17 C17       -75.2669   30.3057  -74.0144 C.3       11 UNK        -0.0865 
     18 CA        -73.7103   30.3433  -74.0028 C.3       10 UNK         0.0862 
     19 C         -73.1259   29.6683  -72.7323 C.2       10 UNK         0.5551 
     20 N         -72.8418   28.3717  -72.7637 N.am      10 UNK        -0.7319 
     21 O         -72.9178   30.3260  -71.7168 O.2       10 UNK        -0.5018 
     22 N         -73.1420   29.7784  -75.2375 N.am      10 UNK        -0.4509 
     23 C         -72.0168   30.2184  -75.8165 C.2       10 UNK         0.4899 
     24 O         -71.3700   31.1871  -75.4134 O.2       10 UNK        -0.4839 
     25 CA        -71.5485   29.4473  -77.0650 C.3       9 UNK         0.0222 
     26 CB        -70.2051   29.9573  -77.6304 C.3       9 UNK        -0.1966 
     27 N         -71.5150   27.9962  -76.8533 N.am      9 UNK        -0.4218 
     28 C         -70.7607   27.3110  -75.9763 C.2       9 UNK         0.5020 
     29 O         -69.9352   27.8366  -75.2286 O.2       9 UNK        -0.5274 
     30 CA        -70.9525   25.7813  -75.9107 C.3       8 UNK         0.0270 
     31 CB        -71.0889   25.2928  -74.4564 C.3       8 UNK        -0.1976 
     32 N         -72.1292   25.3434  -76.6634 N.am      8 UNK        -0.4313 
     33 C         -72.1174   24.8337  -77.9029 C.2       8 UNK         0.5041 
     34 O         -71.0881   24.5866  -78.5318 O.2       8 UNK        -0.5577 
     35 CA        -73.4843   24.5833  -78.5720 C.3       7 UNK         0.0284 
     36 CB        -73.8660   23.0985  -78.4709 C.3       7 UNK        -0.1958 
     37 N         -74.5687   25.4051  -78.0199 N.am      7 UNK        -0.4454 
     38 C         -74.6263   26.7430  -78.1079 C.2       7 UNK         0.5089 
     39 O         -73.8042   27.4186  -78.7252 O.2       7 UNK        -0.5125 
     40 CA        -75.7224   27.4597  -77.3004 C.3       6 UNK         0.0408 
     41 CB        -76.9486   27.7459  -78.1785 C.3       6 UNK        -0.1791 
     42 N         -76.1204   26.7346  -76.0867 N.am      6 UNK        -0.4762 
     43 C         -75.3019   26.5084  -75.0456 C.2       6 UNK         0.5007 
     44 O         -74.1382   26.9158  -75.0178 O.2       6 UNK        -0.5032 
     45 CA        -75.8258   25.6901  -73.8523 C.3       5 UNK         0.0783 
     46 C46       -76.2691   26.6307  -72.7120 C.3       11 UNK        -0.0857 
     47 S47       -76.7200   25.7481  -71.1787 S.3       11 UNK        -0.2512 
     48 C48       -76.5094   27.0595  -69.9275 C.3       11 UNK         0.0225 
     49 N         -76.8848   24.7606  -74.2606 N.am      5 UNK        -0.4615 
     50 C         -76.8549   23.4402  -74.0294 C.2       4 UNK         0.5053 
     51 O         -75.9378   22.8634  -73.4439 O.2       4 UNK        -0.5105 
     52 CA        -78.0421   22.6048  -74.5439 C.3       4 UNK         0.0263 
     53 CB        -79.1124   22.4740  -73.4481 C.3       4 UNK        -0.1981 
     54 N         -78.6563   23.1377  -75.7624 N.am      4 UNK        -0.4224 
     55 C         -78.0196   23.3081  -76.9310 C.2       3 UNK         0.4895 
     56 O         -76.8501   22.9803  -77.1276 O.2       3 UNK        -0.5091 
     57 CA        -78.7902   23.9945  -78.0721 C.3       3 UNK         0.0250 
     58 CB        -79.3122   22.9437  -79.0650 C.3       3 UNK        -0.1996 
     59 N         -79.9036   24.8602  -77.6638 N.am      3 UNK        -0.4254 
     60 C         -79.8674   25.8672  -76.7781 C.2       2 UNK         0.5004 
     61 O         -78.8719   26.1544  -76.1070 O.2       2 UNK        -0.5226 
     62 CA        -81.1593   26.6916  -76.6019 C.3       2 UNK         0.0269 
     63 CB        -82.3744   26.1520  -77.3921 C.3       2 UNK        -0.1926 
     64 N         -81.5197   26.8712  -75.1920 N.am      2 UNK        -0.4687 
     65 C         -81.7121   25.9180  -74.2699 C.2       1 UNK         0.5165 
     66 O         -81.5859   24.7120  -74.4965 O.2       1 UNK        -0.5079 
     67 H67       -79.9704   25.5515  -69.0377 H         1 UNK         0.0900 
     68 H68       -80.5710   23.9353  -69.4126 H         1 UNK         0.0900 
     69 H69       -79.3824   24.6925  -70.4667 H         1 UNK         0.0900 
     70 H70       -80.2013   25.7503  -72.2875 H         1 UNK         0.2959 
     71 H71       -83.0507   25.8197  -72.6730 H         1 UNK         0.1079 
     72 H72       -83.2637   28.1602  -73.3744 H         1 UNK         0.0837 
     73 H73       -82.9126   28.0326  -71.6894 H         1 UNK         0.0837 
     74 H74       -81.1720   28.8962  -70.4807 H         1 UNK         0.0685 
     75 H75       -81.1006   30.5569  -71.0254 H         1 UNK         0.0685 
     76 H76       -79.1676   27.5519  -70.2135 H         1 UNK         0.1434 
     77 H77       -75.3342   29.4103  -70.6551 H         1 UNK         0.1329 
     78 H78       -78.8855   31.5269  -71.7947 H         1 UNK         0.1335 
     79 H79       -76.5972   32.7022  -71.3318 H         1 UNK         0.0680 
     80 H80       -75.1631   31.7158  -71.2817 H         1 UNK         0.0680 
     81 H81       -75.6283   30.1046  -75.0240 H         1 UNK         0.1032 
     82 H82       -75.6711   29.4890  -73.4172 H         1 UNK         0.1032 
     83 H83       -73.4072   31.3912  -73.9547 H         1 UNK         0.0461 
     84 H84       -73.0397   27.8262  -73.5925 H         1 UNK         0.3453 
     85 H85       -72.4421   27.9342  -71.9496 H         1 UNK         0.3453 
     86 H86       -73.5582   28.9177  -75.5684 H         1 UNK         0.2984 
     87 H87       -72.3072   29.6234  -77.8289 H         1 UNK         0.0554 
     88 H88       -70.2714   31.0120  -77.9004 H         1 UNK         0.0847 
     89 H89       -69.9204   29.4115  -78.5298 H         1 UNK         0.0847 
     90 H90       -69.3946   29.8594  -76.9076 H         1 UNK         0.0847 
     91 H91       -72.1600   27.4734  -77.4349 H         1 UNK         0.3141 
     92 H92       -70.0516   25.3312  -76.3323 H         1 UNK         0.0743 
     93 H93       -70.2041   25.5468  -73.8711 H         1 UNK         0.0784 
     94 H94       -71.9484   25.7389  -73.9562 H         1 UNK         0.0784 
     95 H95       -71.2018   24.2095  -74.4125 H         1 UNK         0.0784 
     96 H96       -73.0215   25.5525  -76.2322 H         1 UNK         0.3213 
     97 H97       -73.3784   24.8374  -79.6290 H         1 UNK         0.0855 
     98 H98       -74.0176   22.7897  -77.4357 H         1 UNK         0.0814 
     99 H99       -73.0842   22.4635  -78.8901 H         1 UNK         0.0814 
    100 H100      -74.7828   22.8862  -79.0213 H         1 UNK         0.0814 
    101 H101      -75.2859   24.9206  -77.4960 H         1 UNK         0.3105 
    102 H102      -75.3137   28.4221  -76.9862 H         1 UNK         0.0547 
    103 H103      -77.7065   28.3060  -77.6308 H         1 UNK         0.0837 
    104 H104      -77.4076   26.8301  -78.5471 H         1 UNK         0.0837 
    105 H105      -76.6726   28.3427  -79.0489 H         1 UNK         0.0837 
    106 H106      -77.0936   26.4366  -76.0437 H         1 UNK         0.3020 
    107 H107      -74.9609   25.1278  -73.4923 H         1 UNK         0.1245 
    108 H108      -77.1187   27.2421  -73.0240 H         1 UNK         0.0781 
    109 H109      -75.4601   27.3197  -72.4662 H         1 UNK         0.0781 
    110 H110      -75.4437   27.2158  -69.7526 H         1 UNK         0.0836 
    111 H111      -76.9332   26.7252  -68.9796 H         1 UNK         0.0836 
    112 H112      -77.6753   25.1533  -74.7599 H         1 UNK         0.3022 
    113 H113      -77.6646   21.6071  -74.7773 H         1 UNK         0.0747 
    114 H114      -79.9364   21.8363  -73.7688 H         1 UNK         0.0793 
    115 H115      -78.6927   22.0311  -72.5438 H         1 UNK         0.0793 
    116 H116      -79.5268   23.4439  -73.1717 H         1 UNK         0.0793 
    117 H117      -79.6103   23.4646  -75.6845 H         1 UNK         0.3047 
    118 H118      -78.0713   24.6225  -78.5995 H         1 UNK         0.0822 
    119 H119      -79.7489   23.4113  -79.9477 H         1 UNK         0.0807 
    120 H120      -80.0705   22.3032  -78.6125 H         1 UNK         0.0807 
    121 H121      -78.5046   22.2971  -79.4120 H         1 UNK         0.0807 
    122 H122      -80.7806   24.6964  -78.1367 H         1 UNK         0.2946 
    123 H123      -80.9266   27.6850  -76.9889 H         1 UNK         0.1144 
    124 H124      -82.6525   25.1439  -77.0814 H         1 UNK         0.0793 
    125 H125      -82.1789   26.1334  -78.4652 H         1 UNK         0.0793 
    126 H126      -83.2466   26.7896  -77.2459 H         1 UNK         0.0793 
    127 H127      -81.5645   27.8302  -74.8698 H         1 UNK         0.2896 
@<TRIPOS>BOND
     1    1    2 1    
     2    1   67 1    
     3    1   68 1    
     4    1   69 1    
     5    2    3 2    
     6    2    4 am   BACKBONE|DICT|INTERRES
     7    4    5 1    
     8    4   70 1    
     9    5    6 1    
    10    5   65 1    
    11    5   71 1    
    12    6    7 1    
    13    6   72 1    
    14    6   73 1    
    15    7    8 1    
    16    8    9 1    
    17    8   74 1    
    18    8   75 1    
    19    9   10 ar   
    20    9   14 ar   
    21   10   11 ar   
    22   10   76 1    
    23   11   12 ar   
    24   11   48 1    
    25   12   13 ar   
    26   12   77 1    
    27   13   14 ar   
    28   13   15 1    
    29   14   78 1    
    30   15   16 1    
    31   15   79 1    
    32   15   80 1    
    33   16   17 1    
    34   17   18 1    
    35   17   81 1    
    36   17   82 1    
    37   18   19 1    
    38   18   22 1    
    39   18   83 1    
    40   19   20 am   BACKBONE|DICT|INTERRES
    41   19   21 2    
    42   20   84 1    
    43   20   85 1    
    44   22   23 am   BACKBONE|DICT|INTERRES
    45   22   86 1    
    46   23   24 2    
    47   23   25 1    
    48   25   26 1    
    49   25   27 1    
    50   25   87 1    
    51   26   88 1    
    52   26   89 1    
    53   26   90 1    
    54   27   28 am   BACKBONE|DICT|INTERRES
    55   27   91 1    
    56   28   29 2    
    57   28   30 1    
    58   30   31 1    
    59   30   32 1    
    60   30   92 1    
    61   31   93 1    
    62   31   94 1    
    63   31   95 1    
    64   32   33 am   BACKBONE|DICT|INTERRES
    65   32   96 1    
    66   33   34 2    
    67   33   35 1    
    68   35   36 1    
    69   35   37 1    
    70   35   97 1    
    71   36   98 1    
    72   36   99 1    
    73   36  100 1    
    74   37   38 am   BACKBONE|DICT|INTERRES
    75   37  101 1    
    76   38   39 2    
    77   38   40 1    
    78   40   41 1    
    79   40   42 1    
    80   40  102 1    
    81   41  103 1    
    82   41  104 1    
    83   41  105 1    
    84   42   43 am   BACKBONE|DICT|INTERRES
    85   42  106 1    
    86   43   44 2    
    87   43   45 1    
    88   45   46 1    
    89   45   49 1    
    90   45  107 1    
    91   46   47 1    
    92   46  108 1    
    93   46  109 1    
    94   47   48 1    
    95   48  110 1    
    96   48  111 1    
    97   49   50 am   BACKBONE|DICT|INTERRES
    98   49  112 1    
    99   50   51 2    
   100   50   52 1    
   101   52   53 1    
   102   52   54 1    
   103   52  113 1    
   104   53  114 1    
   105   53  115 1    
   106   53  116 1    
   107   54   55 am   BACKBONE|DICT|INTERRES
   108   54  117 1    
   109   55   56 2    
   110   55   57 1    
   111   57   58 1    
   112   57   59 1    
   113   57  118 1    
   114   58  119 1    
   115   58  120 1    
   116   58  121 1    
   117   59   60 am   BACKBONE|DICT|INTERRES
   118   59  122 1    
   119   60   61 2    
   120   60   62 1    
   121   62   63 1    
   122   62   64 1    
   123   62  123 1    
   124   63  124 1    
   125   63  125 1    
   126   63  126 1    
   127   64   65 am   BACKBONE|DICT|INTERRES
   128   64  127 1    
   129   65   66 2    
@<TRIPOS>SUBSTRUCTURE
     1 UNK         1 GROUP             0       ****    0 ROOT    
