@<TRIPOS>MOLECULE
3R135
127   129    1
SMALL
USER_CHARGES


@<TRIPOS>ATOM
      1 CA        -83.6745   25.8462  -74.0812 C.3       0 UNK        -0.1998 
      2 C         -82.5542   26.5592  -74.8221 C.2       0 UNK         0.4909 
      3 O         -82.6532   26.7514  -76.0348 O.2       0 UNK        -0.5240 
      4 N         -81.4893   26.9423  -74.1015 N.am      1 UNK        -0.4739 
      5 CA        -80.2758   27.6006  -74.6061 C.3       1 UNK         0.0864 
      6 C6        -79.2042   27.7369  -73.4968 C.3       11 UNK        -0.0881 
      7 S7        -79.7456   28.6829  -72.0358 S.3       11 UNK        -0.2682 
      8 C8        -78.3075   29.7791  -71.7458 C.3       11 UNK         0.0289 
      9 C9        -76.9906   29.1049  -71.3338 C.ar      11 UNK        -0.0687 
     10 C10       -76.8456   27.7180  -71.1821 C.ar      11 UNK        -0.0823 
     11 C11       -75.6153   27.1564  -70.8308 C.ar      11 UNK        -0.0830 
     12 C12       -74.5267   27.9948  -70.5784 C.ar      11 UNK        -0.1021 
     13 C13       -74.6541   29.3830  -70.6919 C.ar      11 UNK        -0.0753 
     14 C14       -75.8841   29.9245  -71.0829 C.ar      11 UNK        -0.0933 
     15 C15       -73.4925   30.3087  -70.3392 C.3       11 UNK         0.0166 
     16 S16       -71.9172   29.8258  -71.1261 S.3       11 UNK        -0.2615 
     17 C17       -71.2349   31.4502  -71.6147 C.3       11 UNK        -0.0865 
     18 CA        -71.4942   31.8132  -73.1036 C.3       10 UNK         0.0862 
     19 C         -70.5096   31.1084  -74.0852 C.2       10 UNK         0.5551 
     20 N         -70.9655   30.4411  -75.1390 N.am      10 UNK        -0.7319 
     21 O         -69.2975   31.1963  -73.9025 O.2       10 UNK        -0.5018 
     22 N         -72.9135   31.6571  -73.4495 N.am      10 UNK        -0.4509 
     23 C         -73.5904   32.4039  -74.3272 C.2       10 UNK         0.4899 
     24 O         -73.1174   33.3878  -74.8982 O.2       10 UNK        -0.4839 
     25 CA        -75.0455   31.9705  -74.6051 C.3       9 UNK         0.0222 
     26 CB        -75.5992   32.5589  -75.9203 C.3       9 UNK        -0.1966 
     27 N         -75.2493   30.5138  -74.5711 N.am      9 UNK        -0.4218 
     28 C         -74.6207   29.5937  -75.3179 C.2       9 UNK         0.5020 
     29 O         -73.7311   29.8497  -76.1336 O.2       9 UNK        -0.5274 
     30 CA        -75.1126   28.1463  -75.1494 C.3       8 UNK         0.0270 
     31 CB        -76.2677   27.8751  -76.1249 C.3       8 UNK        -0.1976 
     32 N         -74.0627   27.1553  -75.3878 N.am      8 UNK        -0.4313 
     33 C         -72.9431   27.0283  -74.6644 C.2       8 UNK         0.5041 
     34 O         -72.6821   27.7184  -73.6810 O.2       8 UNK        -0.5577 
     35 CA        -71.9840   25.9112  -75.1000 C.3       7 UNK         0.0284 
     36 CB        -70.7992   25.7258  -74.1325 C.3       7 UNK        -0.1958 
     37 N         -72.7296   24.6577  -75.1944 N.am      7 UNK        -0.4454 
     38 C         -72.7818   23.8555  -76.2644 C.2       7 UNK         0.5089 
     39 O         -72.1666   24.0647  -77.3101 O.2       7 UNK        -0.5125 
     40 CA        -73.6750   22.6046  -76.1555 C.3       6 UNK         0.0408 
     41 CB        -72.8190   21.3615  -75.8645 C.3       6 UNK        -0.1791 
     42 N         -74.7155   22.7235  -75.1281 N.am      6 UNK        -0.4762 
     43 C         -75.8168   23.4779  -75.2483 C.2       6 UNK         0.5007 
     44 O         -76.0935   24.1279  -76.2588 O.2       6 UNK        -0.5032 
     45 CA        -76.7332   23.5544  -74.0149 C.3       5 UNK         0.0783 
     46 C46       -76.5130   24.8676  -73.2224 C.3       11 UNK        -0.0857 
     47 S47       -74.9580   24.8669  -72.2650 S.3       11 UNK        -0.2512 
     48 C48       -75.4664   25.6459  -70.6962 C.3       11 UNK         0.0225 
     49 N         -78.1268   23.4322  -74.4395 N.am      5 UNK        -0.4615 
     50 C         -78.8234   22.2915  -74.4599 C.2       4 UNK         0.5053 
     51 O         -78.3428   21.1963  -74.1665 O.2       4 UNK        -0.5105 
     52 CA        -80.3118   22.3781  -74.8280 C.3       4 UNK         0.0263 
     53 CB        -81.1212   22.9597  -73.6553 C.3       4 UNK        -0.1981 
     54 N         -80.5672   23.1784  -76.0306 N.am      4 UNK        -0.4224 
     55 C         -81.3237   22.7681  -77.0615 C.2       3 UNK         0.4895 
     56 O         -81.7830   21.6282  -77.1516 O.2       3 UNK        -0.5091 
     57 CA        -81.6793   23.7785  -78.1717 C.3       3 UNK         0.0250 
     58 CB        -83.1966   24.0337  -78.1986 C.3       3 UNK        -0.1996 
     59 N         -80.9939   25.0638  -78.0355 N.am      3 UNK        -0.4254 
     60 C         -79.7861   25.3379  -78.5481 C.2       2 UNK         0.5004 
     61 O         -79.1529   24.5541  -79.2558 O.2       2 UNK        -0.5226 
     62 CA        -79.1617   26.7067  -78.2054 C.3       2 UNK         0.0269 
     63 CB        -79.3016   27.6761  -79.3900 C.3       2 UNK        -0.1926 
     64 N         -79.6953   27.3484  -76.9950 N.am      2 UNK        -0.4687 
     65 C         -79.6659   26.8026  -75.7724 C.2       1 UNK         0.5165 
     66 O         -79.2056   25.6847  -75.5415 O.2       1 UNK        -0.5079 
     67 H67       -83.4364   25.6950  -73.0285 H         1 UNK         0.0900 
     68 H68       -83.8578   24.8706  -74.5305 H         1 UNK         0.0900 
     69 H69       -84.5937   26.4281  -74.1428 H         1 UNK         0.0900 
     70 H70       -81.4856   26.7664  -73.1069 H         1 UNK         0.2959 
     71 H71       -80.5531   28.5959  -74.9585 H         1 UNK         0.1079 
     72 H72       -78.9093   26.7460  -73.1495 H         1 UNK         0.0837 
     73 H73       -78.3005   28.1990  -73.8971 H         1 UNK         0.0837 
     74 H74       -78.1392   30.3726  -72.6454 H         1 UNK         0.0685 
     75 H75       -78.5873   30.4863  -70.9636 H         1 UNK         0.0685 
     76 H76       -77.6844   27.0571  -71.3271 H         1 UNK         0.1434 
     77 H77       -73.5777   27.5662  -70.2864 H         1 UNK         0.1329 
     78 H78       -75.9906   30.9977  -71.1685 H         1 UNK         0.1335 
     79 H79       -73.7423   31.3339  -70.6155 H         1 UNK         0.0680 
     80 H80       -73.3572   30.3094  -69.2570 H         1 UNK         0.0680 
     81 H81       -70.1661   31.4574  -71.3928 H         1 UNK         0.1032 
     82 H82       -71.6553   32.2255  -70.9731 H         1 UNK         0.1032 
     83 H83       -71.2517   32.8733  -73.1981 H         1 UNK         0.0461 
     84 H84       -70.3069   30.0058  -75.7636 H         1 UNK         0.3453 
     85 H85       -71.9602   30.3508  -75.3155 H         1 UNK         0.3453 
     86 H86       -73.3551   30.8339  -73.0640 H         1 UNK         0.2984 
     87 H87       -75.6403   32.3789  -73.7868 H         1 UNK         0.0554 
     88 H88       -76.6357   32.2638  -76.0829 H         1 UNK         0.0847 
     89 H89       -75.0184   32.2328  -76.7839 H         1 UNK         0.0847 
     90 H90       -75.5742   33.6492  -75.9048 H         1 UNK         0.0847 
     91 H91       -75.9483   30.1905  -73.9179 H         1 UNK         0.3141 
     92 H92       -75.4664   28.0122  -74.1245 H         1 UNK         0.0743 
     93 H93       -75.9466   27.9705  -77.1631 H         1 UNK         0.0784 
     94 H94       -76.6697   26.8710  -75.9933 H         1 UNK         0.0784 
     95 H95       -77.0856   28.5806  -75.9767 H         1 UNK         0.0784 
     96 H96       -74.1896   26.5448  -76.1818 H         1 UNK         0.3213 
     97 H97       -71.5872   26.2007  -76.0755 H         1 UNK         0.0855 
     98 H98       -71.1370   25.4639  -73.1290 H         1 UNK         0.0814 
     99 H99       -70.2150   26.6436  -74.0515 H         1 UNK         0.0814 
    100 H100      -70.1255   24.9411  -74.4765 H         1 UNK         0.0814 
    101 H101      -73.3025   24.4253  -74.3940 H         1 UNK         0.3105 
    102 H102      -74.1611   22.4626  -77.1231 H         1 UNK         0.0547 
    103 H103      -72.0539   21.2272  -76.6305 H         1 UNK         0.0837 
    104 H104      -72.3071   21.4372  -74.9043 H         1 UNK         0.0837 
    105 H105      -73.4246   20.4551  -75.8534 H         1 UNK         0.0837 
    106 H106      -74.5552   22.2222  -74.2651 H         1 UNK         0.3020 
    107 H107      -76.4995   22.7187  -73.3508 H         1 UNK         0.1245 
    108 H108      -77.3383   24.9964  -72.5218 H         1 UNK         0.0781 
    109 H109      -76.5358   25.7412  -73.8751 H         1 UNK         0.0781 
    110 H110      -74.7146   25.4193  -69.9387 H         1 UNK         0.0836 
    111 H111      -76.3939   25.1969  -70.3379 H         1 UNK         0.0836 
    112 H112      -78.5544   24.2890  -74.7892 H         1 UNK         0.3022 
    113 H113      -80.6471   21.3500  -74.9805 H         1 UNK         0.0747 
    114 H114      -82.1915   22.9205  -73.8577 H         1 UNK         0.0793 
    115 H115      -80.9447   22.3953  -72.7386 H         1 UNK         0.0793 
    116 H116      -80.8555   23.9987  -73.4567 H         1 UNK         0.0793 
    117 H117      -80.1718   24.1141  -76.0455 H         1 UNK         0.3047 
    118 H118      -81.4012   23.3205  -79.1235 H         1 UNK         0.0822 
    119 H119      -83.4693   24.7228  -78.9980 H         1 UNK         0.0807 
    120 H120      -83.5523   24.4544  -77.2575 H         1 UNK         0.0807 
    121 H121      -83.7478   23.1081  -78.3697 H         1 UNK         0.0807 
    122 H122      -81.4517   25.7632  -77.4588 H         1 UNK         0.2946 
    123 H123      -78.0983   26.5230  -78.0375 H         1 UNK         0.1144 
    124 H124      -78.8899   27.2416  -80.3021 H         1 UNK         0.0793 
    125 H125      -78.7645   28.6071  -79.2073 H         1 UNK         0.0793 
    126 H126      -80.3458   27.9214  -79.5882 H         1 UNK         0.0793 
    127 H127      -80.1336   28.2500  -77.1193 H         1 UNK         0.2896 
@<TRIPOS>BOND
     1    1    2 1    
     2    1   67 1    
     3    1   68 1    
     4    1   69 1    
     5    2    3 2    
     6    2    4 am   BACKBONE|DICT|INTERRES
     7    4    5 1    
     8    4   70 1    
     9    5    6 1    
    10    5   65 1    
    11    5   71 1    
    12    6    7 1    
    13    6   72 1    
    14    6   73 1    
    15    7    8 1    
    16    8    9 1    
    17    8   74 1    
    18    8   75 1    
    19    9   10 ar   
    20    9   14 ar   
    21   10   11 ar   
    22   10   76 1    
    23   11   12 ar   
    24   11   48 1    
    25   12   13 ar   
    26   12   77 1    
    27   13   14 ar   
    28   13   15 1    
    29   14   78 1    
    30   15   16 1    
    31   15   79 1    
    32   15   80 1    
    33   16   17 1    
    34   17   18 1    
    35   17   81 1    
    36   17   82 1    
    37   18   19 1    
    38   18   22 1    
    39   18   83 1    
    40   19   20 am   BACKBONE|DICT|INTERRES
    41   19   21 2    
    42   20   84 1    
    43   20   85 1    
    44   22   23 am   BACKBONE|DICT|INTERRES
    45   22   86 1    
    46   23   24 2    
    47   23   25 1    
    48   25   26 1    
    49   25   27 1    
    50   25   87 1    
    51   26   88 1    
    52   26   89 1    
    53   26   90 1    
    54   27   28 am   BACKBONE|DICT|INTERRES
    55   27   91 1    
    56   28   29 2    
    57   28   30 1    
    58   30   31 1    
    59   30   32 1    
    60   30   92 1    
    61   31   93 1    
    62   31   94 1    
    63   31   95 1    
    64   32   33 am   BACKBONE|DICT|INTERRES
    65   32   96 1    
    66   33   34 2    
    67   33   35 1    
    68   35   36 1    
    69   35   37 1    
    70   35   97 1    
    71   36   98 1    
    72   36   99 1    
    73   36  100 1    
    74   37   38 am   BACKBONE|DICT|INTERRES
    75   37  101 1    
    76   38   39 2    
    77   38   40 1    
    78   40   41 1    
    79   40   42 1    
    80   40  102 1    
    81   41  103 1    
    82   41  104 1    
    83   41  105 1    
    84   42   43 am   BACKBONE|DICT|INTERRES
    85   42  106 1    
    86   43   44 2    
    87   43   45 1    
    88   45   46 1    
    89   45   49 1    
    90   45  107 1    
    91   46   47 1    
    92   46  108 1    
    93   46  109 1    
    94   47   48 1    
    95   48  110 1    
    96   48  111 1    
    97   49   50 am   BACKBONE|DICT|INTERRES
    98   49  112 1    
    99   50   51 2    
   100   50   52 1    
   101   52   53 1    
   102   52   54 1    
   103   52  113 1    
   104   53  114 1    
   105   53  115 1    
   106   53  116 1    
   107   54   55 am   BACKBONE|DICT|INTERRES
   108   54  117 1    
   109   55   56 2    
   110   55   57 1    
   111   57   58 1    
   112   57   59 1    
   113   57  118 1    
   114   58  119 1    
   115   58  120 1    
   116   58  121 1    
   117   59   60 am   BACKBONE|DICT|INTERRES
   118   59  122 1    
   119   60   61 2    
   120   60   62 1    
   121   62   63 1    
   122   62   64 1    
   123   62  123 1    
   124   63  124 1    
   125   63  125 1    
   126   63  126 1    
   127   64   65 am   BACKBONE|DICT|INTERRES
   128   64  127 1    
   129   65   66 2    
@<TRIPOS>SUBSTRUCTURE
     1 UNK         1 GROUP             0       ****    0 ROOT    
