@<TRIPOS>MOLECULE
3R135
127   129    1
SMALL
USER_CHARGES


@<TRIPOS>ATOM
      1 CA        -84.1626   22.7647  -73.5601 C.3       0 UNK        -0.1998 
      2 C         -83.6124   24.1673  -73.3517 C.2       0 UNK         0.4909 
      3 O         -84.2210   25.1392  -73.8017 O.2       0 UNK        -0.5240 
      4 N         -82.4578   24.2847  -72.6824 N.am      1 UNK        -0.4739 
      5 CA        -81.7622   25.5449  -72.3949 C.3       1 UNK         0.0864 
      6 C6        -80.8832   25.4039  -71.1237 C.3       11 UNK        -0.0881 
      7 S7        -80.3753   27.0126  -70.4215 S.3       11 UNK        -0.2682 
      8 C8        -78.5696   26.9319  -70.6555 C.3       11 UNK         0.0289 
      9 C9        -77.9520   28.2919  -70.9309 C.ar      11 UNK        -0.0687 
     10 C10       -78.3712   29.0375  -72.0343 C.ar      11 UNK        -0.0823 
     11 C11       -77.7651   30.2578  -72.3442 C.ar      11 UNK        -0.0830 
     12 C12       -76.7285   30.7346  -71.5335 C.ar      11 UNK        -0.1021 
     13 C13       -76.3069   29.9996  -70.4196 C.ar      11 UNK        -0.0753 
     14 C14       -76.9242   28.7809  -70.1229 C.ar      11 UNK        -0.0933 
     15 C15       -75.1962   30.5126  -69.5167 C.3       11 UNK         0.0166 
     16 S16       -73.6565   29.5704  -69.7548 S.3       11 UNK        -0.2615 
     17 C17       -72.8096   30.5327  -71.0549 C.3       11 UNK        -0.0865 
     18 CA        -73.0547   30.0269  -72.5072 C.3       10 UNK         0.0862 
     19 C         -72.3306   30.9370  -73.5443 C.2       10 UNK         0.5551 
     20 N         -71.5536   30.4047  -74.4790 N.am      10 UNK        -0.7319 
     21 O         -72.4990   32.1535  -73.5156 O.2       10 UNK        -0.5018 
     22 N         -72.8440   28.5786  -72.6959 N.am      10 UNK        -0.4509 
     23 C         -71.7401   27.8688  -72.4222 C.2       10 UNK         0.4899 
     24 O         -70.7130   28.3325  -71.9280 O.2       10 UNK        -0.4839 
     25 CA        -71.7873   26.3867  -72.8250 C.3       9 UNK         0.0222 
     26 CB        -72.7139   25.5888  -71.8911 C.3       9 UNK        -0.1966 
     27 N         -72.2470   26.2556  -74.2083 N.am      9 UNK        -0.4218 
     28 C         -71.4720   26.4384  -75.2833 C.2       9 UNK         0.5020 
     29 O         -70.2473   26.5761  -75.2412 O.2       9 UNK        -0.5274 
     30 CA        -72.1896   26.5389  -76.6316 C.3       8 UNK         0.0270 
     31 CB        -72.0762   27.9733  -77.1735 C.3       8 UNK        -0.1976 
     32 N         -71.5480   25.6405  -77.5856 N.am      8 UNK        -0.4313 
     33 C         -72.0271   24.5457  -78.1947 C.2       8 UNK         0.5041 
     34 O         -71.2974   23.8720  -78.9211 O.2       8 UNK        -0.5577 
     35 CA        -73.4867   24.0648  -78.0064 C.3       7 UNK         0.0284 
     36 CB        -73.6408   23.3120  -76.6735 C.3       7 UNK        -0.1958 
     37 N         -74.5644   25.0520  -78.1563 N.am      7 UNK        -0.4454 
     38 C         -74.7127   25.9478  -79.1428 C.2       7 UNK         0.5089 
     39 O         -73.9196   26.0919  -80.0733 O.2       7 UNK        -0.5125 
     40 CA        -75.9807   26.8220  -79.1061 C.3       6 UNK         0.0408 
     41 CB        -77.0898   26.1842  -79.9578 C.3       6 UNK        -0.1791 
     42 N         -76.4961   27.0547  -77.7538 N.am      6 UNK        -0.4762 
     43 C         -76.0120   27.9611  -76.8916 C.2       6 UNK         0.5007 
     44 O         -75.0843   28.7219  -77.1566 O.2       6 UNK        -0.5032 
     45 CA        -76.6750   28.0310  -75.4978 C.3       5 UNK         0.0783 
     46 C46       -77.8597   29.0314  -75.4908 C.3       11 UNK        -0.0857 
     47 S47       -77.3121   30.7188  -75.0554 S.3       11 UNK        -0.2512 
     48 C48       -78.2542   31.0696  -73.5358 C.3       11 UNK         0.0225 
     49 N         -77.0606   26.6998  -75.0173 N.am      5 UNK        -0.4615 
     50 C         -76.1831   25.7573  -74.6477 C.2       4 UNK         0.5053 
     51 O         -74.9765   25.9687  -74.5284 O.2       4 UNK        -0.5105 
     52 CA        -76.7148   24.3314  -74.4241 C.3       4 UNK         0.0263 
     53 CB        -76.8922   24.0116  -72.9331 C.3       4 UNK        -0.1981 
     54 N         -77.9673   24.0773  -75.1394 N.am      4 UNK        -0.4224 
     55 C         -78.0429   23.8240  -76.4534 C.2       3 UNK         0.4895 
     56 O         -77.0606   23.7372  -77.1885 O.2       3 UNK        -0.5091 
     57 CA        -79.4518   23.6985  -77.0591 C.3       3 UNK         0.0250 
     58 CB        -80.0208   22.2903  -76.8244 C.3       3 UNK        -0.1996 
     59 N         -80.3876   24.6995  -76.5398 N.am      3 UNK        -0.4254 
     60 C         -80.2495   26.0235  -76.6995 C.2       2 UNK         0.5004 
     61 O         -79.3399   26.5410  -77.3456 O.2       2 UNK        -0.5226 
     62 CA        -81.2596   26.9286  -75.9739 C.3       2 UNK         0.0269 
     63 CB        -82.4554   27.2362  -76.8881 C.3       2 UNK        -0.1926 
     64 N         -81.7498   26.3952  -74.6970 N.am      2 UNK        -0.4687 
     65 C         -80.9972   26.0374  -73.6466 C.2       1 UNK         0.5165 
     66 O         -79.7651   26.0412  -73.6714 O.2       1 UNK        -0.5079 
     67 H67       -85.1519   22.6803  -73.1112 H         1 UNK         0.0900 
     68 H68       -84.2521   22.5513  -74.6249 H         1 UNK         0.0900 
     69 H69       -83.5219   22.0043  -73.1141 H         1 UNK         0.0900 
     70 H70       -81.9939   23.4484  -72.3562 H         1 UNK         0.2959 
     71 H71       -82.5202   26.3013  -72.1771 H         1 UNK         0.1079 
     72 H72       -80.0191   24.7641  -71.3100 H         1 UNK         0.0837 
     73 H73       -81.4535   24.8975  -70.3432 H         1 UNK         0.0837 
     74 H74       -78.1182   26.4574  -69.7829 H         1 UNK         0.0685 
     75 H75       -78.3306   26.3033  -71.5083 H         1 UNK         0.0685 
     76 H76       -79.1752   28.6563  -72.6478 H         1 UNK         0.1434 
     77 H77       -76.2556   31.6789  -71.7666 H         1 UNK         0.1329 
     78 H78       -76.5887   28.2072  -69.2696 H         1 UNK         0.1335 
     79 H79       -75.0234   31.5787  -69.6698 H         1 UNK         0.0680 
     80 H80       -75.5090   30.4063  -68.4769 H         1 UNK         0.0680 
     81 H81       -71.7419   30.5159  -70.8303 H         1 UNK         0.1032 
     82 H82       -73.1036   31.5797  -70.9639 H         1 UNK         0.1032 
     83 H83       -74.1152   30.1703  -72.7161 H         1 UNK         0.0461 
     84 H84       -71.3766   29.4142  -74.4887 H         1 UNK         0.3453 
     85 H85       -71.1013   31.0093  -75.1462 H         1 UNK         0.3453 
     86 H86       -73.6238   28.0889  -73.1085 H         1 UNK         0.2984 
     87 H87       -70.7802   25.9729  -72.7388 H         1 UNK         0.0554 
     88 H88       -72.7156   24.5294  -72.1477 H         1 UNK         0.0847 
     89 H89       -73.7448   25.9426  -71.9343 H         1 UNK         0.0847 
     90 H90       -72.3852   25.6714  -70.8543 H         1 UNK         0.0847 
     91 H91       -73.2527   26.1359  -74.3425 H         1 UNK         0.3141 
     92 H92       -73.2400   26.3083  -76.4818 H         1 UNK         0.0743 
     93 H93       -71.0385   28.2788  -77.3136 H         1 UNK         0.0784 
     94 H94       -72.5839   28.0735  -78.1330 H         1 UNK         0.0784 
     95 H95       -72.5363   28.6863  -76.4894 H         1 UNK         0.0784 
     96 H96       -70.5660   25.8378  -77.7165 H         1 UNK         0.3213 
     97 H97       -73.6622   23.3355  -78.7997 H         1 UNK         0.0855 
     98 H98       -73.6033   23.9832  -75.8165 H         1 UNK         0.0814 
     99 H99       -72.8447   22.5774  -76.5442 H         1 UNK         0.0814 
    100 H100      -74.5833   22.7664  -76.6352 H         1 UNK         0.0814 
    101 H101      -75.3402   24.9559  -77.5124 H         1 UNK         0.3105 
    102 H102      -75.7288   27.7870  -79.5512 H         1 UNK         0.0547 
    103 H103      -76.7546   26.0281  -80.9840 H         1 UNK         0.0837 
    104 H104      -77.3951   25.2146  -79.5624 H         1 UNK         0.0837 
    105 H105      -77.9739   26.8206  -79.9983 H         1 UNK         0.0837 
    106 H106      -77.3342   26.5445  -77.4917 H         1 UNK         0.3020 
    107 H107      -75.9130   28.3956  -74.8044 H         1 UNK         0.1245 
    108 H108      -78.6230   28.7129  -74.7842 H         1 UNK         0.0781 
    109 H109      -78.3717   29.0646  -76.4549 H         1 UNK         0.0781 
    110 H110      -79.3153   30.8875  -73.7142 H         1 UNK         0.0836 
    111 H111      -78.1678   32.1338  -73.3111 H         1 UNK         0.0836 
    112 H112      -78.0454   26.4686  -75.0283 H         1 UNK         0.3022 
    113 H113      -75.9516   23.6527  -74.8086 H         1 UNK         0.0747 
    114 H114      -76.9681   22.9359  -72.7739 H         1 UNK         0.0793 
    115 H115      -76.0454   24.3664  -72.3435 H         1 UNK         0.0793 
    116 H116      -77.7948   24.4627  -72.5290 H         1 UNK         0.0793 
    117 H117      -78.8224   24.2189  -74.6179 H         1 UNK         0.3047 
    118 H118      -79.3609   23.8559  -78.1361 H         1 UNK         0.0822 
    119 H119      -80.9796   22.1611  -77.3268 H         1 UNK         0.0807 
    120 H120      -80.1663   22.0815  -75.7637 H         1 UNK         0.0807 
    121 H121      -79.3465   21.5277  -77.2172 H         1 UNK         0.0807 
    122 H122      -81.1668   24.3645  -75.9927 H         1 UNK         0.2946 
    123 H123      -80.7476   27.8678  -75.7571 H         1 UNK         0.1144 
    124 H124      -83.1245   27.9672  -76.4338 H         1 UNK         0.0793 
    125 H125      -83.0369   26.3399  -77.1076 H         1 UNK         0.0793 
    126 H126      -82.1230   27.6521  -77.8405 H         1 UNK         0.0793 
    127 H127      -82.7544   26.2803  -74.6024 H         1 UNK         0.2896 
@<TRIPOS>BOND
     1    1    2 1    
     2    1   67 1    
     3    1   68 1    
     4    1   69 1    
     5    2    3 2    
     6    2    4 am   BACKBONE|DICT|INTERRES
     7    4    5 1    
     8    4   70 1    
     9    5    6 1    
    10    5   65 1    
    11    5   71 1    
    12    6    7 1    
    13    6   72 1    
    14    6   73 1    
    15    7    8 1    
    16    8    9 1    
    17    8   74 1    
    18    8   75 1    
    19    9   10 ar   
    20    9   14 ar   
    21   10   11 ar   
    22   10   76 1    
    23   11   12 ar   
    24   11   48 1    
    25   12   13 ar   
    26   12   77 1    
    27   13   14 ar   
    28   13   15 1    
    29   14   78 1    
    30   15   16 1    
    31   15   79 1    
    32   15   80 1    
    33   16   17 1    
    34   17   18 1    
    35   17   81 1    
    36   17   82 1    
    37   18   19 1    
    38   18   22 1    
    39   18   83 1    
    40   19   20 am   BACKBONE|DICT|INTERRES
    41   19   21 2    
    42   20   84 1    
    43   20   85 1    
    44   22   23 am   BACKBONE|DICT|INTERRES
    45   22   86 1    
    46   23   24 2    
    47   23   25 1    
    48   25   26 1    
    49   25   27 1    
    50   25   87 1    
    51   26   88 1    
    52   26   89 1    
    53   26   90 1    
    54   27   28 am   BACKBONE|DICT|INTERRES
    55   27   91 1    
    56   28   29 2    
    57   28   30 1    
    58   30   31 1    
    59   30   32 1    
    60   30   92 1    
    61   31   93 1    
    62   31   94 1    
    63   31   95 1    
    64   32   33 am   BACKBONE|DICT|INTERRES
    65   32   96 1    
    66   33   34 2    
    67   33   35 1    
    68   35   36 1    
    69   35   37 1    
    70   35   97 1    
    71   36   98 1    
    72   36   99 1    
    73   36  100 1    
    74   37   38 am   BACKBONE|DICT|INTERRES
    75   37  101 1    
    76   38   39 2    
    77   38   40 1    
    78   40   41 1    
    79   40   42 1    
    80   40  102 1    
    81   41  103 1    
    82   41  104 1    
    83   41  105 1    
    84   42   43 am   BACKBONE|DICT|INTERRES
    85   42  106 1    
    86   43   44 2    
    87   43   45 1    
    88   45   46 1    
    89   45   49 1    
    90   45  107 1    
    91   46   47 1    
    92   46  108 1    
    93   46  109 1    
    94   47   48 1    
    95   48  110 1    
    96   48  111 1    
    97   49   50 am   BACKBONE|DICT|INTERRES
    98   49  112 1    
    99   50   51 2    
   100   50   52 1    
   101   52   53 1    
   102   52   54 1    
   103   52  113 1    
   104   53  114 1    
   105   53  115 1    
   106   53  116 1    
   107   54   55 am   BACKBONE|DICT|INTERRES
   108   54  117 1    
   109   55   56 2    
   110   55   57 1    
   111   57   58 1    
   112   57   59 1    
   113   57  118 1    
   114   58  119 1    
   115   58  120 1    
   116   58  121 1    
   117   59   60 am   BACKBONE|DICT|INTERRES
   118   59  122 1    
   119   60   61 2    
   120   60   62 1    
   121   62   63 1    
   122   62   64 1    
   123   62  123 1    
   124   63  124 1    
   125   63  125 1    
   126   63  126 1    
   127   64   65 am   BACKBONE|DICT|INTERRES
   128   64  127 1    
   129   65   66 2    
@<TRIPOS>SUBSTRUCTURE
     1 UNK         1 GROUP             0       ****    0 ROOT    
