@<TRIPOS>MOLECULE
3R135
127   129    1
SMALL
USER_CHARGES


@<TRIPOS>ATOM
      1 CA        -83.1784   26.2100  -69.8578 C.3       0 UNK        -0.1998 
      2 C         -82.5600   26.4919  -71.2184 C.2       0 UNK         0.4909 
      3 O         -81.6420   25.7820  -71.6262 O.2       0 UNK        -0.5240 
      4 N         -83.0603   27.5233  -71.9158 N.am      1 UNK        -0.4739 
      5 CA        -82.6101   27.9878  -73.2398 C.3       1 UNK         0.0864 
      6 C6        -81.1676   28.5679  -73.2338 C.3       11 UNK        -0.0881 
      7 S7        -81.0234   30.0670  -72.1981 S.3       11 UNK        -0.2682 
      8 C8        -80.1839   29.4553  -70.7005 C.3       11 UNK         0.0289 
      9 C9        -78.7609   28.9944  -70.9810 C.ar      11 UNK        -0.0687 
     10 C10       -78.4562   27.6306  -70.9965 C.ar      11 UNK        -0.0823 
     11 C11       -77.1580   27.1976  -71.2775 C.ar      11 UNK        -0.0830 
     12 C12       -76.1514   28.1404  -71.5079 C.ar      11 UNK        -0.1021 
     13 C13       -76.4457   29.5064  -71.5082 C.ar      11 UNK        -0.0753 
     14 C14       -77.7514   29.9286  -71.2359 C.ar      11 UNK        -0.0933 
     15 C15       -75.3586   30.5195  -71.8345 C.3       11 UNK         0.0166 
     16 S16       -74.9182   30.4553  -73.6015 S.3       11 UNK        -0.2615 
     17 C17       -74.0033   32.0239  -73.8073 C.3       11 UNK        -0.0865 
     18 CA        -72.4601   31.8722  -73.8780 C.3       10 UNK         0.0862 
     19 C         -71.8150   31.5641  -72.4933 C.2       10 UNK         0.5551 
     20 N         -70.9173   30.5942  -72.3659 N.am      10 UNK        -0.7319 
     21 O         -72.1241   32.2345  -71.5112 O.2       10 UNK        -0.5018 
     22 N         -72.0519   30.9681  -74.9651 N.am      10 UNK        -0.4509 
     23 C         -70.9402   31.1022  -75.6987 C.2       10 UNK         0.4899 
     24 O         -70.1684   32.0582  -75.6018 O.2       10 UNK        -0.4839 
     25 CA        -70.6392   29.9627  -76.6957 C.3       9 UNK         0.0222 
     26 CB        -69.2165   30.0477  -77.2874 C.3       9 UNK        -0.1966 
     27 N         -70.8769   28.6207  -76.1452 N.am      9 UNK        -0.4218 
     28 C         -70.3593   28.1021  -75.0178 C.2       9 UNK         0.5020 
     29 O         -69.6216   28.7254  -74.2535 O.2       9 UNK        -0.5274 
     30 CA        -70.7401   26.6572  -74.6499 C.3       8 UNK         0.0270 
     31 CB        -71.7127   26.6520  -73.4571 C.3       8 UNK        -0.1976 
     32 N         -71.3293   25.9184  -75.7706 N.am      8 UNK        -0.4313 
     33 C         -70.6165   25.3597  -76.7618 C.2       8 UNK         0.5041 
     34 O         -69.3851   25.3566  -76.7909 O.2       8 UNK        -0.5577 
     35 CA        -71.3843   24.6999  -77.9257 C.3       7 UNK         0.0284 
     36 CB        -71.4153   23.1729  -77.7485 C.3       7 UNK        -0.1958 
     37 N         -72.7554   25.1853  -78.0991 N.am      7 UNK        -0.4454 
     38 C         -73.1028   26.4406  -78.4167 C.2       7 UNK         0.5089 
     39 O         -72.2934   27.3396  -78.6453 O.2       7 UNK        -0.5125 
     40 CA        -74.6097   26.7639  -78.4016 C.3       6 UNK         0.0408 
     41 CB        -75.2127   26.5703  -79.8015 C.3       6 UNK        -0.1791 
     42 N         -75.3885   25.9898  -77.4233 N.am      6 UNK        -0.4762 
     43 C         -75.1264   25.9052  -76.1086 C.2       6 UNK         0.5007 
     44 O         -74.1606   26.4561  -75.5816 O.2       6 UNK        -0.5032 
     45 CA        -76.0635   25.0602  -75.2246 C.3       5 UNK         0.0783 
     46 C46       -76.8008   25.9614  -74.2104 C.3       11 UNK        -0.0857 
     47 S47       -77.6049   24.9922  -72.8893 S.3       11 UNK        -0.2512 
     48 C48       -76.8582   25.7097  -71.3876 C.3       11 UNK         0.0225 
     49 N         -77.0054   24.2469  -75.9972 N.am      5 UNK        -0.4615 
     50 C         -76.7235   23.0909  -76.6044 C.2       4 UNK         0.5053 
     51 O         -75.5927   22.6028  -76.6322 O.2       4 UNK        -0.5105 
     52 CA        -77.9068   22.3685  -77.2862 C.3       4 UNK         0.0263 
     53 CB        -77.5225   20.9707  -77.8072 C.3       4 UNK        -0.1981 
     54 N         -79.0834   22.2436  -76.4139 N.am      4 UNK        -0.4224 
     55 C         -79.9398   23.2287  -76.1110 C.2       3 UNK         0.4895 
     56 O         -79.8212   24.3850  -76.5265 O.2       3 UNK        -0.5091 
     57 CA        -81.0954   22.8710  -75.1686 C.3       3 UNK         0.0250 
     58 CB        -80.6101   22.7242  -73.7143 C.3       3 UNK        -0.1996 
     59 N         -82.1072   23.9204  -75.2442 N.am      3 UNK        -0.4254 
     60 C         -83.4041   23.7885  -74.9540 C.2       2 UNK         0.5004 
     61 O         -83.9091   22.7383  -74.5515 O.2       2 UNK        -0.5226 
     62 CA        -84.2746   25.0484  -75.1324 C.3       2 UNK         0.0269 
     63 CB        -85.7773   24.7609  -74.9510 C.3       2 UNK        -0.1926 
     64 N         -83.8849   26.1122  -74.2030 N.am      2 UNK        -0.4687 
     65 C         -82.8354   26.9340  -74.3521 C.2       1 UNK         0.5165 
     66 O         -82.0842   26.8870  -75.3282 O.2       1 UNK        -0.5079 
     67 H67       -83.5950   25.2033  -69.8370 H         1 UNK         0.0900 
     68 H68       -83.9759   26.9128  -69.6172 H         1 UNK         0.0900 
     69 H69       -82.4184   26.2806  -69.0801 H         1 UNK         0.0900 
     70 H70       -83.8142   28.0628  -71.5125 H         1 UNK         0.2959 
     71 H71       -83.2801   28.8063  -73.5086 H         1 UNK         0.1079 
     72 H72       -80.4452   27.8116  -72.9270 H         1 UNK         0.0837 
     73 H73       -80.8694   28.8658  -74.2406 H         1 UNK         0.0837 
     74 H74       -80.7728   28.6526  -70.2560 H         1 UNK         0.0685 
     75 H75       -80.1598   30.2572  -69.9614 H         1 UNK         0.0685 
     76 H76       -79.2368   26.9005  -70.8274 H         1 UNK         0.1434 
     77 H77       -75.1456   27.8139  -71.7360 H         1 UNK         0.1329 
     78 H78       -77.9906   30.9833  -71.2409 H         1 UNK         0.1335 
     79 H79       -74.4720   30.3190  -71.2311 H         1 UNK         0.0680 
     80 H80       -75.6924   31.5252  -71.5744 H         1 UNK         0.0680 
     81 H81       -74.3535   32.4790  -74.7349 H         1 UNK         0.1032 
     82 H82       -74.2871   32.7314  -73.0261 H         1 UNK         0.1032 
     83 H83       -72.0836   32.8661  -74.1272 H         1 UNK         0.0461 
     84 H84       -70.5116   30.4233  -71.4601 H         1 UNK         0.3453 
     85 H85       -70.6021   30.0531  -73.1638 H         1 UNK         0.3453 
     86 H86       -72.6246   30.1453  -75.0864 H         1 UNK         0.2984 
     87 H87       -71.3459   30.0833  -77.5181 H         1 UNK         0.0554 
     88 H88       -69.0424   29.2547  -78.0149 H         1 UNK         0.0847 
     89 H89       -68.4525   29.9662  -76.5134 H         1 UNK         0.0847 
     90 H90       -69.0604   30.9968  -77.8016 H         1 UNK         0.0847 
     91 H91       -71.4665   28.0232  -76.7129 H         1 UNK         0.3141 
     92 H92       -69.8262   26.1466  -74.3387 H         1 UNK         0.0743 
     93 H93       -71.2395   27.0764  -72.5706 H         1 UNK         0.0784 
     94 H94       -72.6059   27.2451  -73.6561 H         1 UNK         0.0784 
     95 H95       -72.0290   25.6404  -73.2024 H         1 UNK         0.0784 
     96 H96       -72.3456   25.9160  -75.8183 H         1 UNK         0.3213 
     97 H97       -70.8359   24.9282  -78.8422 H         1 UNK         0.0855 
     98 H98       -71.9794   22.8808  -76.8616 H         1 UNK         0.0814 
     99 H99       -70.4066   22.7712  -77.6405 H         1 UNK         0.0814 
    100 H100      -71.8661   22.6814  -78.6109 H         1 UNK         0.0814 
    101 H101      -73.4977   24.5263  -77.9104 H         1 UNK         0.3105 
    102 H102      -74.7101   27.8167  -78.1302 H         1 UNK         0.0547 
    103 H103      -75.1796   25.5262  -80.1155 H         1 UNK         0.0837 
    104 H104      -76.2511   26.9001  -79.8370 H         1 UNK         0.0837 
    105 H105      -74.6660   27.1515  -80.5456 H         1 UNK         0.0837 
    106 H106      -76.2044   25.5064  -77.7701 H         1 UNK         0.3020 
    107 H107      -75.4120   24.3849  -74.6646 H         1 UNK         0.1245 
    108 H108      -77.5588   26.5703  -74.7067 H         1 UNK         0.0781 
    109 H109      -76.1014   26.6652  -73.7593 H         1 UNK         0.0781 
    110 H110      -77.2522   25.1930  -70.5113 H         1 UNK         0.0836 
    111 H111      -75.7825   25.5263  -71.3964 H         1 UNK         0.0836 
    112 H112      -77.9682   24.5707  -76.0299 H         1 UNK         0.3022 
    113 H113      -78.1859   22.9746  -78.1508 H         1 UNK         0.0747 
    114 H114      -76.6916   21.0292  -78.5117 H         1 UNK         0.0793 
    115 H115      -78.3539   20.4996  -78.3320 H         1 UNK         0.0793 
    116 H116      -77.2169   20.3079  -76.9965 H         1 UNK         0.0793 
    117 H117      -79.2306   21.3350  -75.9975 H         1 UNK         0.3047 
    118 H118      -81.5288   21.9281  -75.5091 H         1 UNK         0.0822 
    119 H119      -79.7964   22.0029  -73.6317 H         1 UNK         0.0807 
    120 H120      -81.4133   22.3807  -73.0623 H         1 UNK         0.0807 
    121 H121      -80.2499   23.6741  -73.3177 H         1 UNK         0.0807 
    122 H122      -81.7624   24.8209  -75.5680 H         1 UNK         0.2946 
    123 H123      -84.1262   25.3995  -76.1565 H         1 UNK         0.1144 
    124 H124      -86.0052   24.4164  -73.9414 H         1 UNK         0.0793 
    125 H125      -86.1133   23.9877  -75.6434 H         1 UNK         0.0793 
    126 H126      -86.3777   25.6497  -75.1458 H         1 UNK         0.0793 
    127 H127      -84.4279   26.1919  -73.3553 H         1 UNK         0.2896 
@<TRIPOS>BOND
     1    1    2 1    
     2    1   67 1    
     3    1   68 1    
     4    1   69 1    
     5    2    3 2    
     6    2    4 am   BACKBONE|DICT|INTERRES
     7    4    5 1    
     8    4   70 1    
     9    5    6 1    
    10    5   65 1    
    11    5   71 1    
    12    6    7 1    
    13    6   72 1    
    14    6   73 1    
    15    7    8 1    
    16    8    9 1    
    17    8   74 1    
    18    8   75 1    
    19    9   10 ar   
    20    9   14 ar   
    21   10   11 ar   
    22   10   76 1    
    23   11   12 ar   
    24   11   48 1    
    25   12   13 ar   
    26   12   77 1    
    27   13   14 ar   
    28   13   15 1    
    29   14   78 1    
    30   15   16 1    
    31   15   79 1    
    32   15   80 1    
    33   16   17 1    
    34   17   18 1    
    35   17   81 1    
    36   17   82 1    
    37   18   19 1    
    38   18   22 1    
    39   18   83 1    
    40   19   20 am   BACKBONE|DICT|INTERRES
    41   19   21 2    
    42   20   84 1    
    43   20   85 1    
    44   22   23 am   BACKBONE|DICT|INTERRES
    45   22   86 1    
    46   23   24 2    
    47   23   25 1    
    48   25   26 1    
    49   25   27 1    
    50   25   87 1    
    51   26   88 1    
    52   26   89 1    
    53   26   90 1    
    54   27   28 am   BACKBONE|DICT|INTERRES
    55   27   91 1    
    56   28   29 2    
    57   28   30 1    
    58   30   31 1    
    59   30   32 1    
    60   30   92 1    
    61   31   93 1    
    62   31   94 1    
    63   31   95 1    
    64   32   33 am   BACKBONE|DICT|INTERRES
    65   32   96 1    
    66   33   34 2    
    67   33   35 1    
    68   35   36 1    
    69   35   37 1    
    70   35   97 1    
    71   36   98 1    
    72   36   99 1    
    73   36  100 1    
    74   37   38 am   BACKBONE|DICT|INTERRES
    75   37  101 1    
    76   38   39 2    
    77   38   40 1    
    78   40   41 1    
    79   40   42 1    
    80   40  102 1    
    81   41  103 1    
    82   41  104 1    
    83   41  105 1    
    84   42   43 am   BACKBONE|DICT|INTERRES
    85   42  106 1    
    86   43   44 2    
    87   43   45 1    
    88   45   46 1    
    89   45   49 1    
    90   45  107 1    
    91   46   47 1    
    92   46  108 1    
    93   46  109 1    
    94   47   48 1    
    95   48  110 1    
    96   48  111 1    
    97   49   50 am   BACKBONE|DICT|INTERRES
    98   49  112 1    
    99   50   51 2    
   100   50   52 1    
   101   52   53 1    
   102   52   54 1    
   103   52  113 1    
   104   53  114 1    
   105   53  115 1    
   106   53  116 1    
   107   54   55 am   BACKBONE|DICT|INTERRES
   108   54  117 1    
   109   55   56 2    
   110   55   57 1    
   111   57   58 1    
   112   57   59 1    
   113   57  118 1    
   114   58  119 1    
   115   58  120 1    
   116   58  121 1    
   117   59   60 am   BACKBONE|DICT|INTERRES
   118   59  122 1    
   119   60   61 2    
   120   60   62 1    
   121   62   63 1    
   122   62   64 1    
   123   62  123 1    
   124   63  124 1    
   125   63  125 1    
   126   63  126 1    
   127   64   65 am   BACKBONE|DICT|INTERRES
   128   64  127 1    
   129   65   66 2    
@<TRIPOS>SUBSTRUCTURE
     1 UNK         1 GROUP             0       ****    0 ROOT    
