@<TRIPOS>MOLECULE
3R135
127   129    1
SMALL
USER_CHARGES


@<TRIPOS>ATOM
      1 CA        -79.9420   21.8762  -71.6931 C.3       0 UNK        -0.1998 
      2 C         -80.0489   23.3155  -72.1724 C.2       0 UNK         0.4909 
      3 O         -79.1270   23.7975  -72.8278 O.2       0 UNK        -0.5240 
      4 N         -81.1762   23.9778  -71.8662 N.am      1 UNK        -0.4739 
      5 CA        -81.5269   25.3835  -72.1460 C.3       1 UNK         0.0864 
      6 C6        -81.0670   26.3792  -71.0396 C.3       11 UNK        -0.0881 
      7 S7        -79.2631   26.5391  -70.7963 S.3       11 UNK        -0.2682 
      8 C8        -79.1406   28.1511  -69.9544 C.3       11 UNK         0.0289 
      9 C9        -78.6293   29.2637  -70.8646 C.ar      11 UNK        -0.0687 
     10 C10       -79.3330   29.6223  -72.0192 C.ar      11 UNK        -0.0823 
     11 C11       -78.8914   30.6756  -72.8268 C.ar      11 UNK        -0.0830 
     12 C12       -77.7413   31.3819  -72.4651 C.ar      11 UNK        -0.1021 
     13 C13       -77.0269   31.0357  -71.3149 C.ar      11 UNK        -0.0753 
     14 C14       -77.4716   29.9723  -70.5225 C.ar      11 UNK        -0.0933 
     15 C15       -75.8003   31.8427  -70.9136 C.3       11 UNK         0.0166 
     16 S16       -74.3391   31.4075  -71.9051 S.3       11 UNK        -0.2615 
     17 C17       -73.8197   29.8522  -71.1049 C.3       11 UNK        -0.0865 
     18 CA        -72.5765   29.2282  -71.7914 C.3       10 UNK         0.0862 
     19 C         -71.9925   28.0615  -70.9429 C.2       10 UNK         0.5551 
     20 N         -71.9041   26.8364  -71.4446 N.am      10 UNK        -0.7319 
     21 O         -71.5978   28.2787  -69.7996 O.2       10 UNK        -0.5018 
     22 N         -72.8738   28.8744  -73.1848 N.am      10 UNK        -0.4509 
     23 C         -71.9944   28.8258  -74.1881 C.2       10 UNK         0.4899 
     24 O         -70.7947   29.0880  -74.0810 O.2       10 UNK        -0.4839 
     25 CA        -72.5738   28.4155  -75.5540 C.3       9 UNK         0.0222 
     26 CB        -72.1385   29.3922  -76.6594 C.3       9 UNK        -0.1966 
     27 N         -72.2447   27.0485  -75.9677 N.am      9 UNK        -0.4218 
     28 C         -72.3272   25.9265  -75.2385 C.2       9 UNK         0.5020 
     29 O         -72.5747   25.8921  -74.0336 O.2       9 UNK        -0.5274 
     30 CA        -72.1554   24.6101  -76.0151 C.3       8 UNK         0.0270 
     31 CB        -72.3382   23.3617  -75.1305 C.3       8 UNK        -0.1976 
     32 N         -73.1099   24.5453  -77.1232 N.am      8 UNK        -0.4313 
     33 C         -72.9043   25.0520  -78.3434 C.2       8 UNK         0.5041 
     34 O         -71.8882   25.6739  -78.6569 O.2       8 UNK        -0.5577 
     35 CA        -74.0274   24.8679  -79.3666 C.3       7 UNK         0.0284 
     36 CB        -74.4736   23.3978  -79.4868 C.3       7 UNK        -0.1958 
     37 N         -75.1733   25.7099  -79.0183 N.am      7 UNK        -0.4454 
     38 C         -75.5500   26.7850  -79.7236 C.2       7 UNK         0.5089 
     39 O         -74.9283   27.2231  -80.6927 O.2       7 UNK        -0.5125 
     40 CA        -76.8638   27.4731  -79.3257 C.3       6 UNK         0.0408 
     41 CB        -78.0516   26.7770  -80.0098 C.3       6 UNK        -0.1791 
     42 N         -77.1066   27.5172  -77.8852 N.am      6 UNK        -0.4762 
     43 C         -76.5821   28.4296  -77.0540 C.2       6 UNK         0.5007 
     44 O         -75.7096   29.2337  -77.3822 O.2       6 UNK        -0.5032 
     45 CA        -77.1387   28.4482  -75.6198 C.3       5 UNK         0.0783 
     46 C46       -78.6124   28.9230  -75.5797 C.3       11 UNK        -0.0857 
     47 S47       -78.7550   30.7401  -75.6128 S.3       11 UNK        -0.2512 
     48 C48       -79.6736   31.0708  -74.0730 C.3       11 UNK         0.0225 
     49 N         -76.9929   27.1155  -75.0433 N.am      5 UNK        -0.4615 
     50 C         -76.0751   26.7749  -74.1326 C.2       4 UNK         0.5053 
     51 O         -75.3340   27.5906  -73.5859 O.2       4 UNK        -0.5105 
     52 CA        -75.9378   25.2816  -73.7772 C.3       4 UNK         0.0263 
     53 CB        -75.9997   25.0429  -72.2612 C.3       4 UNK        -0.1981 
     54 N         -76.9161   24.4252  -74.4512 N.am      4 UNK        -0.4224 
     55 C         -76.7978   23.9957  -75.7138 C.2       3 UNK         0.4895 
     56 O         -75.8470   24.2712  -76.4464 O.2       3 UNK        -0.5091 
     57 CA        -77.9585   23.1633  -76.2752 C.3       3 UNK         0.0250 
     58 CB        -77.8664   21.7097  -75.7851 C.3       3 UNK        -0.1996 
     59 N         -79.2819   23.7075  -75.9574 N.am      3 UNK        -0.4254 
     60 C         -79.7341   24.9131  -76.3313 C.2       2 UNK         0.5004 
     61 O         -79.0484   25.7503  -76.9177 O.2       2 UNK        -0.5226 
     62 CA        -81.1939   25.2372  -75.9866 C.3       2 UNK         0.0269 
     63 CB        -82.1590   24.4305  -76.8713 C.3       2 UNK        -0.1926 
     64 N         -81.4785   24.9752  -74.5747 N.am      2 UNK        -0.4687 
     65 C         -81.2595   25.8622  -73.5936 C.2       1 UNK         0.5165 
     66 O         -80.8985   27.0195  -73.8048 O.2       1 UNK        -0.5079 
     67 H67       -79.8245   21.2056  -72.5438 H         1 UNK         0.0900 
     68 H68       -79.0713   21.7632  -71.0479 H         1 UNK         0.0900 
     69 H69       -80.8227   21.5640  -71.1323 H         1 UNK         0.0900 
     70 H70       -81.8832   23.4766  -71.3461 H         1 UNK         0.2959 
     71 H71       -82.6170   25.3906  -72.0932 H         1 UNK         0.1079 
     72 H72       -81.4898   27.3665  -71.2323 H         1 UNK         0.0837 
     73 H73       -81.4936   26.0696  -70.0845 H         1 UNK         0.0837 
     74 H74       -80.1088   28.4384  -69.5424 H         1 UNK         0.0685 
     75 H75       -78.4762   28.0284  -69.0979 H         1 UNK         0.0685 
     76 H76       -80.2279   29.0794  -72.2882 H         1 UNK         0.1434 
     77 H77       -77.4013   32.2038  -73.0807 H         1 UNK         0.1329 
     78 H78       -76.9258   29.7106  -69.6265 H         1 UNK         0.1335 
     79 H79       -75.5778   31.7142  -69.8531 H         1 UNK         0.0680 
     80 H80       -76.0103   32.9044  -71.0513 H         1 UNK         0.0680 
     81 H81       -73.6149   30.0694  -70.0547 H         1 UNK         0.1032 
     82 H82       -74.6531   29.1467  -71.1191 H         1 UNK         0.1032 
     83 H83       -71.7963   29.9918  -71.8054 H         1 UNK         0.0461 
     84 H84       -71.5181   26.0990  -70.8784 H         1 UNK         0.3453 
     85 H85       -72.2175   26.6323  -72.3924 H         1 UNK         0.3453 
     86 H86       -73.8200   28.5344  -73.3546 H         1 UNK         0.2984 
     87 H87       -73.6619   28.4674  -75.4923 H         1 UNK         0.0554 
     88 H88       -72.3733   30.4213  -76.3841 H         1 UNK         0.0847 
     89 H89       -72.6553   29.1855  -77.5971 H         1 UNK         0.0847 
     90 H90       -71.0651   29.3399  -76.8459 H         1 UNK         0.0847 
     91 H91       -72.0192   26.9227  -76.9485 H         1 UNK         0.3141 
     92 H92       -71.1357   24.5934  -76.4059 H         1 UNK         0.0743 
     93 H93       -71.6369   23.3676  -74.2950 H         1 UNK         0.0784 
     94 H94       -73.3440   23.3028  -74.7136 H         1 UNK         0.0784 
     95 H95       -72.1582   22.4476  -75.6964 H         1 UNK         0.0784 
     96 H96       -74.0372   24.1867  -76.9025 H         1 UNK         0.3213 
     97 H97       -73.6181   25.1546  -80.3379 H         1 UNK         0.0855 
     98 H98       -74.9497   23.0263  -78.5798 H         1 UNK         0.0814 
     99 H99       -73.6227   22.7487  -79.6978 H         1 UNK         0.0814 
    100 H100      -75.1838   23.2723  -80.3042 H         1 UNK         0.0814 
    101 H101      -75.7021   25.4416  -78.1955 H         1 UNK         0.3105 
    102 H102      -76.8236   28.4993  -79.6978 H         1 UNK         0.0547 
    103 H103      -78.9868   27.2999  -79.8092 H         1 UNK         0.0837 
    104 H104      -77.9205   26.7519  -81.0925 H         1 UNK         0.0837 
    105 H105      -78.1664   25.7466  -79.6704 H         1 UNK         0.0837 
    106 H106      -77.8208   26.8803  -77.5317 H         1 UNK         0.3020 
    107 H107      -76.5391   29.1596  -75.0460 H         1 UNK         0.1245 
    108 H108      -79.0764   28.5642  -74.6626 H         1 UNK         0.0781 
    109 H109      -79.2108   28.4984  -76.3878 H         1 UNK         0.0781 
    110 H110      -80.6322   30.5506  -74.1127 H         1 UNK         0.0836 
    111 H111      -79.9071   32.1353  -74.0241 H         1 UNK         0.0836 
    112 H112      -77.5683   26.3894  -75.4495 H         1 UNK         0.3022 
    113 H113      -74.9462   24.9765  -74.1072 H         1 UNK         0.0747 
    114 H114      -76.9758   25.3020  -71.8578 H         1 UNK         0.0793 
    115 H115      -75.8042   23.9989  -72.0175 H         1 UNK         0.0793 
    116 H116      -75.2552   25.6437  -71.7368 H         1 UNK         0.0793 
    117 H117      -77.7514   24.1809  -73.9162 H         1 UNK         0.3047 
    118 H118      -77.8598   23.1623  -77.3629 H         1 UNK         0.0822 
    119 H119      -76.8925   21.2788  -76.0221 H         1 UNK         0.0807 
    120 H120      -78.6205   21.0818  -76.2600 H         1 UNK         0.0807 
    121 H121      -78.0009   21.6382  -74.7048 H         1 UNK         0.0807 
    122 H122      -79.8985   23.1087  -75.4297 H         1 UNK         0.2946 
    123 H123      -81.3536   26.2970  -76.2013 H         1 UNK         0.1144 
    124 H124      -83.1945   24.7175  -76.6876 H         1 UNK         0.0793 
    125 H125      -82.0746   23.3568  -76.6996 H         1 UNK         0.0793 
    126 H126      -81.9581   24.6087  -77.9288 H         1 UNK         0.0793 
    127 H127      -81.7857   24.0471  -74.3225 H         1 UNK         0.2896 
@<TRIPOS>BOND
     1    1    2 1    
     2    1   67 1    
     3    1   68 1    
     4    1   69 1    
     5    2    3 2    
     6    2    4 am   BACKBONE|DICT|INTERRES
     7    4    5 1    
     8    4   70 1    
     9    5    6 1    
    10    5   65 1    
    11    5   71 1    
    12    6    7 1    
    13    6   72 1    
    14    6   73 1    
    15    7    8 1    
    16    8    9 1    
    17    8   74 1    
    18    8   75 1    
    19    9   10 ar   
    20    9   14 ar   
    21   10   11 ar   
    22   10   76 1    
    23   11   12 ar   
    24   11   48 1    
    25   12   13 ar   
    26   12   77 1    
    27   13   14 ar   
    28   13   15 1    
    29   14   78 1    
    30   15   16 1    
    31   15   79 1    
    32   15   80 1    
    33   16   17 1    
    34   17   18 1    
    35   17   81 1    
    36   17   82 1    
    37   18   19 1    
    38   18   22 1    
    39   18   83 1    
    40   19   20 am   BACKBONE|DICT|INTERRES
    41   19   21 2    
    42   20   84 1    
    43   20   85 1    
    44   22   23 am   BACKBONE|DICT|INTERRES
    45   22   86 1    
    46   23   24 2    
    47   23   25 1    
    48   25   26 1    
    49   25   27 1    
    50   25   87 1    
    51   26   88 1    
    52   26   89 1    
    53   26   90 1    
    54   27   28 am   BACKBONE|DICT|INTERRES
    55   27   91 1    
    56   28   29 2    
    57   28   30 1    
    58   30   31 1    
    59   30   32 1    
    60   30   92 1    
    61   31   93 1    
    62   31   94 1    
    63   31   95 1    
    64   32   33 am   BACKBONE|DICT|INTERRES
    65   32   96 1    
    66   33   34 2    
    67   33   35 1    
    68   35   36 1    
    69   35   37 1    
    70   35   97 1    
    71   36   98 1    
    72   36   99 1    
    73   36  100 1    
    74   37   38 am   BACKBONE|DICT|INTERRES
    75   37  101 1    
    76   38   39 2    
    77   38   40 1    
    78   40   41 1    
    79   40   42 1    
    80   40  102 1    
    81   41  103 1    
    82   41  104 1    
    83   41  105 1    
    84   42   43 am   BACKBONE|DICT|INTERRES
    85   42  106 1    
    86   43   44 2    
    87   43   45 1    
    88   45   46 1    
    89   45   49 1    
    90   45  107 1    
    91   46   47 1    
    92   46  108 1    
    93   46  109 1    
    94   47   48 1    
    95   48  110 1    
    96   48  111 1    
    97   49   50 am   BACKBONE|DICT|INTERRES
    98   49  112 1    
    99   50   51 2    
   100   50   52 1    
   101   52   53 1    
   102   52   54 1    
   103   52  113 1    
   104   53  114 1    
   105   53  115 1    
   106   53  116 1    
   107   54   55 am   BACKBONE|DICT|INTERRES
   108   54  117 1    
   109   55   56 2    
   110   55   57 1    
   111   57   58 1    
   112   57   59 1    
   113   57  118 1    
   114   58  119 1    
   115   58  120 1    
   116   58  121 1    
   117   59   60 am   BACKBONE|DICT|INTERRES
   118   59  122 1    
   119   60   61 2    
   120   60   62 1    
   121   62   63 1    
   122   62   64 1    
   123   62  123 1    
   124   63  124 1    
   125   63  125 1    
   126   63  126 1    
   127   64   65 am   BACKBONE|DICT|INTERRES
   128   64  127 1    
   129   65   66 2    
@<TRIPOS>SUBSTRUCTURE
     1 UNK         1 GROUP             0       ****    0 ROOT    
