@<TRIPOS>MOLECULE
3R135
127   129    1
SMALL
USER_CHARGES


@<TRIPOS>ATOM
      1 CA        -82.3491   23.6847  -71.1497 C.3       0 UNK        -0.1998 
      2 C         -82.4456   24.6705  -72.3034 C.2       0 UNK         0.4909 
      3 O         -82.8188   24.2811  -73.4107 O.2       0 UNK        -0.5240 
      4 N         -82.1056   25.9429  -72.0545 N.am      1 UNK        -0.4739 
      5 CA        -82.0537   27.0278  -73.0423 C.3       1 UNK         0.0864 
      6 C6        -81.7306   28.4246  -72.4166 C.3       11 UNK        -0.0881 
      7 S7        -80.9617   28.4592  -70.7485 S.3       11 UNK        -0.2682 
      8 C8        -79.2313   27.9614  -71.0278 C.3       11 UNK         0.0289 
      9 C9        -78.3697   29.0582  -71.6363 C.ar      11 UNK        -0.0687 
     10 C10       -78.3256   29.2186  -73.0206 C.ar      11 UNK        -0.0823 
     11 C11       -77.4856   30.1648  -73.6099 C.ar      11 UNK        -0.0830 
     12 C12       -76.6966   30.9793  -72.7914 C.ar      11 UNK        -0.1021 
     13 C13       -76.7349   30.8395  -71.3981 C.ar      11 UNK        -0.0753 
     14 C14       -77.5737   29.8748  -70.8280 C.ar      11 UNK        -0.0933 
     15 C15       -75.8958   31.7410  -70.4976 C.3       11 UNK         0.0166 
     16 S16       -74.1330   31.8001  -70.9584 S.3       11 UNK        -0.2615 
     17 C17       -73.6113   30.0719  -70.6762 C.3       11 UNK        -0.0865 
     18 CA        -72.2286   29.7622  -71.3225 C.3       10 UNK         0.0862 
     19 C         -71.6833   28.3501  -70.9432 C.2       10 UNK         0.5551 
     20 N         -70.9764   27.6511  -71.8249 N.am      10 UNK        -0.7319 
     21 O         -71.8697   27.8944  -69.8174 O.2       10 UNK        -0.5018 
     22 N         -72.1834   30.0712  -72.7626 N.am      10 UNK        -0.4509 
     23 C         -72.8956   29.4679  -73.7226 C.2       10 UNK         0.4899 
     24 O         -73.7093   28.5680  -73.5138 O.2       10 UNK        -0.4839 
     25 CA        -72.6480   29.9278  -75.1730 C.3       9 UNK         0.0222 
     26 CB        -71.6489   31.1000  -75.3182 C.3       9 UNK        -0.1966 
     27 N         -72.2513   28.8017  -76.0244 N.am      9 UNK        -0.4218 
     28 C         -71.1908   27.9938  -75.8603 C.2       9 UNK         0.5020 
     29 O         -70.3645   28.1274  -74.9541 O.2       9 UNK        -0.5274 
     30 CA        -71.0146   26.8409  -76.8677 C.3       8 UNK         0.0270 
     31 CB        -70.7719   25.5048  -76.1420 C.3       8 UNK        -0.1976 
     32 N         -72.1800   26.6898  -77.7441 N.am      8 UNK        -0.4313 
     33 C         -72.2323   27.0129  -79.0442 C.2       8 UNK         0.5041 
     34 O         -71.2786   27.4951  -79.6577 O.2       8 UNK        -0.5577 
     35 CA        -73.5730   26.7988  -79.7862 C.3       7 UNK         0.0284 
     36 CB        -73.3704   26.3597  -81.2525 C.3       7 UNK        -0.1958 
     37 N         -74.5147   25.9075  -79.0928 N.am      7 UNK        -0.4454 
     38 C         -74.3545   24.6059  -78.8056 C.2       7 UNK         0.5089 
     39 O         -73.4015   23.9298  -79.1956 O.2       7 UNK        -0.5125 
     40 CA        -75.4264   23.9674  -77.8928 C.3       6 UNK         0.0408 
     41 CB        -74.8815   22.7486  -77.1202 C.3       6 UNK        -0.1791 
     42 N         -76.0659   24.8993  -76.9503 N.am      6 UNK        -0.4762 
     43 C         -75.4586   25.7102  -76.0650 C.2       6 UNK         0.5007 
     44 O         -74.2399   25.8621  -75.9923 O.2       6 UNK        -0.5032 
     45 CA        -76.3846   26.4729  -75.1004 C.3       5 UNK         0.0783 
     46 C46       -77.1750   27.5758  -75.8581 C.3       11 UNK        -0.0857 
     47 S47       -76.2850   29.1658  -75.9231 S.3       11 UNK        -0.2512 
     48 C48       -77.4525   30.3190  -75.1252 C.3       11 UNK         0.0225 
     49 N         -77.2695   25.5460  -74.3854 N.am      5 UNK        -0.4615 
     50 C         -76.8774   24.5408  -73.5865 C.2       4 UNK         0.5053 
     51 O         -75.7090   24.3416  -73.2557 O.2       4 UNK        -0.5105 
     52 CA        -77.9634   23.5691  -73.0913 C.3       4 UNK         0.0263 
     53 CB        -78.5052   23.9775  -71.7125 C.3       4 UNK        -0.1981 
     54 N         -79.0722   23.4625  -74.0408 N.am      4 UNK        -0.4224 
     55 C         -79.0961   22.6209  -75.0836 C.2       3 UNK         0.4895 
     56 O         -78.2322   21.7708  -75.2998 O.2       3 UNK        -0.5091 
     57 CA        -80.2776   22.7498  -76.0613 C.3       3 UNK         0.0250 
     58 CB        -81.4162   21.7994  -75.6580 C.3       3 UNK        -0.1996 
     59 N         -80.7970   24.1162  -76.1673 N.am      3 UNK        -0.4254 
     60 C         -80.1349   25.1355  -76.7345 C.2       2 UNK         0.5004 
     61 O         -79.0177   25.0294  -77.2437 O.2       2 UNK        -0.5226 
     62 CA        -80.8085   26.5210  -76.6802 C.3       2 UNK         0.0269 
     63 CB        -81.7219   26.7163  -77.9004 C.3       2 UNK        -0.1926 
     64 N         -81.5717   26.7923  -75.4521 N.am      2 UNK        -0.4687 
     65 C         -81.0976   26.6799  -74.2025 C.2       1 UNK         0.5165 
     66 O         -79.9566   26.2959  -73.9478 O.2       1 UNK        -0.5079 
     67 H67       -83.3383   23.3025  -70.8998 H         1 UNK         0.0900 
     68 H68       -81.9242   24.1430  -70.2569 H         1 UNK         0.0900 
     69 H69       -81.7185   22.8415  -71.4305 H         1 UNK         0.0900 
     70 H70       -81.7990   26.2082  -71.1286 H         1 UNK         0.2959 
     71 H71       -83.0570   27.0874  -73.4703 H         1 UNK         0.1079 
     72 H72       -81.1537   29.0590  -73.0909 H         1 UNK         0.0837 
     73 H73       -82.6745   28.9601  -72.3028 H         1 UNK         0.0837 
     74 H74       -78.8061   27.6516  -70.0720 H         1 UNK         0.0685 
     75 H75       -79.2019   27.0791  -71.6610 H         1 UNK         0.0685 
     76 H76       -78.9486   28.5945  -73.6372 H         1 UNK         0.1434 
     77 H77       -76.0488   31.7218  -73.2372 H         1 UNK         0.1329 
     78 H78       -77.6056   29.7544  -69.7537 H         1 UNK         0.1335 
     79 H79       -76.3018   32.7522  -70.5450 H         1 UNK         0.0680 
     80 H80       -75.9710   31.4286  -69.4548 H         1 UNK         0.0680 
     81 H81       -73.5787   29.9064  -69.5979 H         1 UNK         0.1032 
     82 H82       -74.3712   29.3921  -71.0647 H         1 UNK         0.1032 
     83 H83       -71.5120   30.4490  -70.8706 H         1 UNK         0.0461 
     84 H84       -70.6180   26.7469  -71.5630 H         1 UNK         0.3453 
     85 H85       -70.8221   28.0035  -72.7610 H         1 UNK         0.3453 
     86 H86       -71.5199   30.7811  -73.0346 H         1 UNK         0.2984 
     87 H87       -73.6092   30.2779  -75.5485 H         1 UNK         0.0554 
     88 H88       -71.9840   31.9766  -74.7622 H         1 UNK         0.0847 
     89 H89       -71.5579   31.4053  -76.3606 H         1 UNK         0.0847 
     90 H90       -70.6495   30.8408  -74.9668 H         1 UNK         0.0847 
     91 H91       -72.8920   28.5728  -76.7696 H         1 UNK         0.3141 
     92 H92       -70.1253   27.0703  -77.4578 H         1 UNK         0.0743 
     93 H93       -71.6004   25.2505  -75.4796 H         1 UNK         0.0784 
     94 H94       -70.6472   24.6862  -76.8512 H         1 UNK         0.0784 
     95 H95       -69.8678   25.5456  -75.5332 H         1 UNK         0.0784 
     96 H96       -73.0104   26.3102  -77.2901 H         1 UNK         0.3213 
     97 H97       -74.0538   27.7780  -79.8058 H         1 UNK         0.0855 
     98 H98       -72.8093   27.1092  -81.8119 H         1 UNK         0.0814 
     99 H99       -74.3240   26.2254  -81.7629 H         1 UNK         0.0814 
    100 H100      -72.8160   25.4235  -81.3233 H         1 UNK         0.0814 
    101 H101      -75.3405   26.3538  -78.7184 H         1 UNK         0.3105 
    102 H102      -76.2183   23.6148  -78.5549 H         1 UNK         0.0547 
    103 H103      -74.5197   21.9776  -77.8014 H         1 UNK         0.0837 
    104 H104      -74.0520   23.0251  -76.4683 H         1 UNK         0.0837 
    105 H105      -75.6554   22.2937  -76.5016 H         1 UNK         0.0837 
    106 H106      -77.0842   24.8849  -76.9551 H         1 UNK         0.3020 
    107 H107      -75.7552   26.9426  -74.3402 H         1 UNK         0.1245 
    108 H108      -78.1405   27.7367  -75.3898 H         1 UNK         0.0781 
    109 H109      -77.4211   27.2822  -76.8802 H         1 UNK         0.0781 
    110 H110      -78.4509   30.1805  -75.5432 H         1 UNK         0.0836 
    111 H111      -77.1605   31.3381  -75.3834 H         1 UNK         0.0836 
    112 H112      -78.2669   25.6917  -74.5038 H         1 UNK         0.3022 
    113 H113      -77.4896   22.5911  -72.9799 H         1 UNK         0.0747 
    114 H114      -79.1099   23.1809  -71.2795 H         1 UNK         0.0793 
    115 H115      -77.6934   24.1836  -71.0135 H         1 UNK         0.0793 
    116 H116      -79.1273   24.8678  -71.7696 H         1 UNK         0.0793 
    117 H117      -79.7942   24.1690  -73.9712 H         1 UNK         0.3047 
    118 H118      -79.9180   22.4508  -77.0485 H         1 UNK         0.0822 
    119 H119      -82.2328   21.8286  -76.3796 H         1 UNK         0.0807 
    120 H120      -81.8245   22.0500  -74.6782 H         1 UNK         0.0807 
    121 H121      -81.0643   20.7679  -75.6099 H         1 UNK         0.0807 
    122 H122      -81.6925   24.3009  -75.7342 H         1 UNK         0.2946 
    123 H123      -80.0138   27.2660  -76.7385 H         1 UNK         0.1144 
    124 H124      -81.1764   26.5406  -78.8290 H         1 UNK         0.0793 
    125 H125      -82.1132   27.7328  -77.9460 H         1 UNK         0.0793 
    126 H126      -82.5692   26.0295  -77.8854 H         1 UNK         0.0793 
    127 H127      -82.5267   27.0953  -75.5819 H         1 UNK         0.2896 
@<TRIPOS>BOND
     1    1    2 1    
     2    1   67 1    
     3    1   68 1    
     4    1   69 1    
     5    2    3 2    
     6    2    4 am   BACKBONE|DICT|INTERRES
     7    4    5 1    
     8    4   70 1    
     9    5    6 1    
    10    5   65 1    
    11    5   71 1    
    12    6    7 1    
    13    6   72 1    
    14    6   73 1    
    15    7    8 1    
    16    8    9 1    
    17    8   74 1    
    18    8   75 1    
    19    9   10 ar   
    20    9   14 ar   
    21   10   11 ar   
    22   10   76 1    
    23   11   12 ar   
    24   11   48 1    
    25   12   13 ar   
    26   12   77 1    
    27   13   14 ar   
    28   13   15 1    
    29   14   78 1    
    30   15   16 1    
    31   15   79 1    
    32   15   80 1    
    33   16   17 1    
    34   17   18 1    
    35   17   81 1    
    36   17   82 1    
    37   18   19 1    
    38   18   22 1    
    39   18   83 1    
    40   19   20 am   BACKBONE|DICT|INTERRES
    41   19   21 2    
    42   20   84 1    
    43   20   85 1    
    44   22   23 am   BACKBONE|DICT|INTERRES
    45   22   86 1    
    46   23   24 2    
    47   23   25 1    
    48   25   26 1    
    49   25   27 1    
    50   25   87 1    
    51   26   88 1    
    52   26   89 1    
    53   26   90 1    
    54   27   28 am   BACKBONE|DICT|INTERRES
    55   27   91 1    
    56   28   29 2    
    57   28   30 1    
    58   30   31 1    
    59   30   32 1    
    60   30   92 1    
    61   31   93 1    
    62   31   94 1    
    63   31   95 1    
    64   32   33 am   BACKBONE|DICT|INTERRES
    65   32   96 1    
    66   33   34 2    
    67   33   35 1    
    68   35   36 1    
    69   35   37 1    
    70   35   97 1    
    71   36   98 1    
    72   36   99 1    
    73   36  100 1    
    74   37   38 am   BACKBONE|DICT|INTERRES
    75   37  101 1    
    76   38   39 2    
    77   38   40 1    
    78   40   41 1    
    79   40   42 1    
    80   40  102 1    
    81   41  103 1    
    82   41  104 1    
    83   41  105 1    
    84   42   43 am   BACKBONE|DICT|INTERRES
    85   42  106 1    
    86   43   44 2    
    87   43   45 1    
    88   45   46 1    
    89   45   49 1    
    90   45  107 1    
    91   46   47 1    
    92   46  108 1    
    93   46  109 1    
    94   47   48 1    
    95   48  110 1    
    96   48  111 1    
    97   49   50 am   BACKBONE|DICT|INTERRES
    98   49  112 1    
    99   50   51 2    
   100   50   52 1    
   101   52   53 1    
   102   52   54 1    
   103   52  113 1    
   104   53  114 1    
   105   53  115 1    
   106   53  116 1    
   107   54   55 am   BACKBONE|DICT|INTERRES
   108   54  117 1    
   109   55   56 2    
   110   55   57 1    
   111   57   58 1    
   112   57   59 1    
   113   57  118 1    
   114   58  119 1    
   115   58  120 1    
   116   58  121 1    
   117   59   60 am   BACKBONE|DICT|INTERRES
   118   59  122 1    
   119   60   61 2    
   120   60   62 1    
   121   62   63 1    
   122   62   64 1    
   123   62  123 1    
   124   63  124 1    
   125   63  125 1    
   126   63  126 1    
   127   64   65 am   BACKBONE|DICT|INTERRES
   128   64  127 1    
   129   65   66 2    
@<TRIPOS>SUBSTRUCTURE
     1 UNK         1 GROUP             0       ****    0 ROOT    
