@<TRIPOS>MOLECULE
3R135
127   129    1
SMALL
USER_CHARGES


@<TRIPOS>ATOM
      1 CA        -74.4462   26.7011  -69.7214 C.3       0 UNK        -0.1998 
      2 C         -75.8362   26.1168  -69.5198 C.2       0 UNK         0.4909 
      3 O         -76.1128   25.5395  -68.4686 O.2       0 UNK        -0.5240 
      4 N         -76.7091   26.2506  -70.5271 N.am      1 UNK        -0.4739 
      5 CA        -78.1020   25.7752  -70.5092 C.3       1 UNK         0.0864 
      6 C6        -79.0051   26.6449  -71.4225 C.3       11 UNK        -0.0881 
      7 S7        -79.1263   28.3421  -70.7609 S.3       11 UNK        -0.2682 
      8 C8        -80.4067   29.0899  -71.8275 C.3       11 UNK         0.0289 
      9 C9        -79.8997   29.7022  -73.1351 C.ar      11 UNK        -0.0687 
     10 C10       -80.8061   29.8915  -74.1826 C.ar      11 UNK        -0.0823 
     11 C11       -80.4057   30.4994  -75.3759 C.ar      11 UNK        -0.0830 
     12 C12       -79.0787   30.9108  -75.5278 C.ar      11 UNK        -0.1021 
     13 C13       -78.1514   30.7125  -74.5012 C.ar      11 UNK        -0.0753 
     14 C14       -78.5761   30.1300  -73.3018 C.ar      11 UNK        -0.0933 
     15 C15       -76.7019   31.1483  -74.6912 C.3       11 UNK         0.0166 
     16 S16       -75.5231   29.7809  -74.4257 S.3       11 UNK        -0.2615 
     17 C17       -75.1401   29.9507  -72.6436 C.3       11 UNK        -0.0865 
     18 CA        -73.6137   30.0146  -72.3712 C.3       10 UNK         0.0862 
     19 C         -73.3154   30.4465  -70.9034 C.2       10 UNK         0.5551 
     20 N         -72.5754   29.6768  -70.1146 N.am      10 UNK        -0.7319 
     21 O         -73.7609   31.5080  -70.4749 O.2       10 UNK        -0.5018 
     22 N         -72.9545   28.7698  -72.7980 N.am      10 UNK        -0.4509 
     23 C         -71.6567   28.6272  -73.0920 C.2       10 UNK         0.4899 
     24 O         -70.8346   29.5410  -73.0228 O.2       10 UNK        -0.4839 
     25 CA        -71.1835   27.2224  -73.5218 C.3       9 UNK         0.0222 
     26 CB        -70.3315   26.5846  -72.4112 C.3       9 UNK        -0.1966 
     27 N         -72.2677   26.2967  -73.8794 N.am      9 UNK        -0.4218 
     28 C         -73.0520   26.4149  -74.9595 C.2       9 UNK         0.5020 
     29 O         -72.9511   27.3294  -75.7808 O.2       9 UNK        -0.5274 
     30 CA        -74.1659   25.3601  -75.1026 C.3       8 UNK         0.0270 
     31 CB        -75.3339   25.6838  -74.1535 C.3       8 UNK        -0.1976 
     32 N         -74.6763   25.3059  -76.4718 N.am      8 UNK        -0.4313 
     33 C         -73.9946   24.8431  -77.5303 C.2       8 UNK         0.5041 
     34 O         -72.9358   24.2184  -77.4499 O.2       8 UNK        -0.5577 
     35 CA        -74.5782   25.1723  -78.9135 C.3       7 UNK         0.0284 
     36 CB        -75.6175   24.1209  -79.3348 C.3       7 UNK        -0.1958 
     37 N         -75.1846   26.5066  -78.8923 N.am      7 UNK        -0.4454 
     38 C         -74.5009   27.6458  -79.0766 C.2       7 UNK         0.5089 
     39 O         -73.3458   27.6752  -79.5044 O.2       7 UNK        -0.5125 
     40 CA        -75.1774   28.9789  -78.6851 C.3       6 UNK         0.0408 
     41 CB        -75.1008   30.0215  -79.8201 C.3       6 UNK        -0.1791 
     42 N         -76.5443   28.8568  -78.1577 N.am      6 UNK        -0.4762 
     43 C         -77.6500   28.4917  -78.8229 C.2       6 UNK         0.5007 
     44 O         -77.6801   28.2205  -80.0245 O.2       6 UNK        -0.5032 
     45 CA        -78.9375   28.3565  -77.9863 C.3       5 UNK         0.0783 
     46 C46       -80.0311   29.3155  -78.5203 C.3       11 UNK        -0.0857 
     47 S47       -81.5757   29.2487  -77.5503 S.3       11 UNK        -0.2512 
     48 C48       -81.4145   30.7207  -76.4927 C.3       11 UNK         0.0225 
     49 N         -79.4039   26.9685  -77.9370 N.am      5 UNK        -0.4615 
     50 C         -78.6922   25.9050  -77.5461 C.2       4 UNK         0.5053 
     51 O         -77.5050   25.9531  -77.2064 O.2       4 UNK        -0.5105 
     52 CA        -79.4475   24.5627  -77.5814 C.3       4 UNK         0.0263 
     53 CB        -79.6427   24.0907  -79.0332 C.3       4 UNK        -0.1981 
     54 N         -78.7829   23.4969  -76.8285 N.am      4 UNK        -0.4224 
     55 C         -78.5524   23.5048  -75.5097 C.2       3 UNK         0.4895 
     56 O         -78.9176   24.4054  -74.7478 O.2       3 UNK        -0.5091 
     57 CA        -77.7925   22.2931  -74.9507 C.3       3 UNK         0.0250 
     58 CB        -76.4801   22.0099  -75.7118 C.3       3 UNK        -0.1996 
     59 N         -77.5004   22.5381  -73.5433 N.am      3 UNK        -0.4254 
     60 C         -77.3412   21.6126  -72.5942 C.2       2 UNK         0.5004 
     61 O         -77.4194   20.4010  -72.8029 O.2       2 UNK        -0.5226 
     62 CA        -77.0175   22.1111  -71.1739 C.3       2 UNK         0.0269 
     63 CB        -75.6061   21.6622  -70.7567 C.3       2 UNK        -0.1926 
     64 N         -77.1043   23.5679  -71.0146 N.am      2 UNK        -0.4687 
     65 C         -78.2334   24.2617  -70.8082 C.2       1 UNK         0.5165 
     66 O         -79.3495   23.7412  -70.8189 O.2       1 UNK        -0.5079 
     67 H67       -74.3290   27.1433  -70.7093 H         1 UNK         0.0900 
     68 H68       -74.2566   27.4754  -68.9784 H         1 UNK         0.0900 
     69 H69       -73.6907   25.9247  -69.6046 H         1 UNK         0.0900 
     70 H70       -76.4395   26.7525  -71.3596 H         1 UNK         0.2959 
     71 H71       -78.4786   25.8846  -69.4891 H         1 UNK         0.1079 
     72 H72       -80.0148   26.2335  -71.4788 H         1 UNK         0.0837 
     73 H73       -78.6242   26.6744  -72.4455 H         1 UNK         0.0837 
     74 H74       -81.1750   28.3433  -72.0346 H         1 UNK         0.0685 
     75 H75       -80.8959   29.8811  -71.2582 H         1 UNK         0.0685 
     76 H76       -81.8345   29.5771  -74.0650 H         1 UNK         0.1434 
     77 H77       -78.7674   31.3822  -76.4500 H         1 UNK         0.1329 
     78 H78       -77.8682   30.0117  -72.4969 H         1 UNK         0.1335 
     79 H79       -76.4786   31.9876  -74.0318 H         1 UNK         0.0680 
     80 H80       -76.5508   31.5190  -75.7063 H         1 UNK         0.0680 
     81 H81       -75.6279   30.8475  -72.2580 H         1 UNK         0.1032 
     82 H82       -75.5910   29.1152  -72.1063 H         1 UNK         0.1032 
     83 H83       -73.2090   30.8181  -72.9898 H         1 UNK         0.0461 
     84 H84       -72.1715   28.8250  -70.4660 H         1 UNK         0.3453 
     85 H85       -72.3855   29.9767  -69.1715 H         1 UNK         0.3453 
     86 H86       -73.5557   27.9722  -72.9248 H         1 UNK         0.2984 
     87 H87       -70.5514   27.3530  -74.4027 H         1 UNK         0.0554 
     88 H88       -69.4938   27.2294  -72.1408 H         1 UNK         0.0847 
     89 H89       -69.9095   25.6317  -72.7311 H         1 UNK         0.0847 
     90 H90       -70.9117   26.4088  -71.5045 H         1 UNK         0.0847 
     91 H91       -72.4128   25.5134  -73.2583 H         1 UNK         0.3141 
     92 H92       -73.7580   24.3795  -74.8485 H         1 UNK         0.0743 
     93 H93       -75.7507   26.6728  -74.3502 H         1 UNK         0.0784 
     94 H94       -76.1419   24.9624  -74.2610 H         1 UNK         0.0784 
     95 H95       -75.0163   25.6589  -73.1111 H         1 UNK         0.0784 
     96 H96       -75.5629   25.7685  -76.6428 H         1 UNK         0.3213 
     97 H97       -73.7645   25.1545  -79.6419 H         1 UNK         0.0855 
     98 H98       -76.4019   24.0010  -78.5888 H         1 UNK         0.0814 
     99 H99       -75.1466   23.1456  -79.4637 H         1 UNK         0.0814 
    100 H100      -76.0882   24.3830  -80.2824 H         1 UNK         0.0814 
    101 H101      -76.1261   26.5662  -78.5194 H         1 UNK         0.3105 
    102 H102      -74.5874   29.3662  -77.8527 H         1 UNK         0.0547 
    103 H103      -74.0643   30.2296  -80.0881 H         1 UNK         0.0837 
    104 H104      -75.6021   29.6782  -80.7251 H         1 UNK         0.0837 
    105 H105      -75.5519   30.9679  -79.5225 H         1 UNK         0.0837 
    106 H106      -76.6192   29.0094  -77.1603 H         1 UNK         0.3020 
    107 H107      -78.7087   28.6329  -76.9561 H         1 UNK         0.1245 
    108 H108      -80.2824   29.0661  -79.5533 H         1 UNK         0.0781 
    109 H109      -79.6653   30.3435  -78.5449 H         1 UNK         0.0781 
    110 H110      -82.3907   30.9509  -76.0631 H         1 UNK         0.0836 
    111 H111      -81.1423   31.5877  -77.0967 H         1 UNK         0.0836 
    112 H112      -80.3656   26.8320  -78.2113 H         1 UNK         0.3022 
    113 H113      -80.4287   24.7201  -77.1284 H         1 UNK         0.0747 
    114 H114      -80.2181   23.1656  -79.0759 H         1 UNK         0.0793 
    115 H115      -78.6904   23.9164  -79.5347 H         1 UNK         0.0793 
    116 H116      -80.1867   24.8303  -79.6221 H         1 UNK         0.0793 
    117 H117      -78.4389   22.7183  -77.3699 H         1 UNK         0.3047 
    118 H118      -78.4542   21.4282  -75.0337 H         1 UNK         0.0822 
    119 H119      -75.9439   21.1673  -75.2749 H         1 UNK         0.0807 
    120 H120      -75.8121   22.8700  -75.6935 H         1 UNK         0.0807 
    121 H121      -76.6630   21.7581  -76.7565 H         1 UNK         0.0807 
    122 H122      -77.5272   23.5123  -73.2731 H         1 UNK         0.2946 
    123 H123      -77.7390   21.6418  -70.5008 H         1 UNK         0.1144 
    124 H124      -75.3839   21.9541  -69.7300 H         1 UNK         0.0793 
    125 H125      -74.8388   22.0907  -71.4027 H         1 UNK         0.0793 
    126 H126      -75.5076   20.5770  -70.8100 H         1 UNK         0.0793 
    127 H127      -76.2314   24.0728  -70.9740 H         1 UNK         0.2896 
@<TRIPOS>BOND
     1    1    2 1    
     2    1   67 1    
     3    1   68 1    
     4    1   69 1    
     5    2    3 2    
     6    2    4 am   BACKBONE|DICT|INTERRES
     7    4    5 1    
     8    4   70 1    
     9    5    6 1    
    10    5   65 1    
    11    5   71 1    
    12    6    7 1    
    13    6   72 1    
    14    6   73 1    
    15    7    8 1    
    16    8    9 1    
    17    8   74 1    
    18    8   75 1    
    19    9   10 ar   
    20    9   14 ar   
    21   10   11 ar   
    22   10   76 1    
    23   11   12 ar   
    24   11   48 1    
    25   12   13 ar   
    26   12   77 1    
    27   13   14 ar   
    28   13   15 1    
    29   14   78 1    
    30   15   16 1    
    31   15   79 1    
    32   15   80 1    
    33   16   17 1    
    34   17   18 1    
    35   17   81 1    
    36   17   82 1    
    37   18   19 1    
    38   18   22 1    
    39   18   83 1    
    40   19   20 am   BACKBONE|DICT|INTERRES
    41   19   21 2    
    42   20   84 1    
    43   20   85 1    
    44   22   23 am   BACKBONE|DICT|INTERRES
    45   22   86 1    
    46   23   24 2    
    47   23   25 1    
    48   25   26 1    
    49   25   27 1    
    50   25   87 1    
    51   26   88 1    
    52   26   89 1    
    53   26   90 1    
    54   27   28 am   BACKBONE|DICT|INTERRES
    55   27   91 1    
    56   28   29 2    
    57   28   30 1    
    58   30   31 1    
    59   30   32 1    
    60   30   92 1    
    61   31   93 1    
    62   31   94 1    
    63   31   95 1    
    64   32   33 am   BACKBONE|DICT|INTERRES
    65   32   96 1    
    66   33   34 2    
    67   33   35 1    
    68   35   36 1    
    69   35   37 1    
    70   35   97 1    
    71   36   98 1    
    72   36   99 1    
    73   36  100 1    
    74   37   38 am   BACKBONE|DICT|INTERRES
    75   37  101 1    
    76   38   39 2    
    77   38   40 1    
    78   40   41 1    
    79   40   42 1    
    80   40  102 1    
    81   41  103 1    
    82   41  104 1    
    83   41  105 1    
    84   42   43 am   BACKBONE|DICT|INTERRES
    85   42  106 1    
    86   43   44 2    
    87   43   45 1    
    88   45   46 1    
    89   45   49 1    
    90   45  107 1    
    91   46   47 1    
    92   46  108 1    
    93   46  109 1    
    94   47   48 1    
    95   48  110 1    
    96   48  111 1    
    97   49   50 am   BACKBONE|DICT|INTERRES
    98   49  112 1    
    99   50   51 2    
   100   50   52 1    
   101   52   53 1    
   102   52   54 1    
   103   52  113 1    
   104   53  114 1    
   105   53  115 1    
   106   53  116 1    
   107   54   55 am   BACKBONE|DICT|INTERRES
   108   54  117 1    
   109   55   56 2    
   110   55   57 1    
   111   57   58 1    
   112   57   59 1    
   113   57  118 1    
   114   58  119 1    
   115   58  120 1    
   116   58  121 1    
   117   59   60 am   BACKBONE|DICT|INTERRES
   118   59  122 1    
   119   60   61 2    
   120   60   62 1    
   121   62   63 1    
   122   62   64 1    
   123   62  123 1    
   124   63  124 1    
   125   63  125 1    
   126   63  126 1    
   127   64   65 am   BACKBONE|DICT|INTERRES
   128   64  127 1    
   129   65   66 2    
@<TRIPOS>SUBSTRUCTURE
     1 UNK         1 GROUP             0       ****    0 ROOT    
