@<TRIPOS>MOLECULE
3R135
127   129    1
SMALL
USER_CHARGES


@<TRIPOS>ATOM
      1 CA        -82.0611   24.0502  -69.0888 C.3       0 UNK        -0.1998 
      2 C         -82.4942   24.6392  -70.4227 C.2       0 UNK         0.4909 
      3 O         -83.6876   24.6630  -70.7242 O.2       0 UNK        -0.5240 
      4 N         -81.5326   25.1088  -71.2279 N.am      1 UNK        -0.4739 
      5 CA        -81.7576   25.7071  -72.5514 C.3       1 UNK         0.0864 
      6 C6        -80.6716   26.7575  -72.8984 C.3       11 UNK        -0.0881 
      7 S7        -78.9613   26.1115  -72.8427 S.3       11 UNK        -0.2682 
      8 C8        -78.2464   27.0309  -71.4341 C.3       11 UNK         0.0289 
      9 C9        -77.5618   28.3347  -71.8418 C.ar      11 UNK        -0.0687 
     10 C10       -78.2546   29.3180  -72.5532 C.ar      11 UNK        -0.0823 
     11 C11       -77.6294   30.5145  -72.9114 C.ar      11 UNK        -0.0830 
     12 C12       -76.3084   30.7451  -72.5217 C.ar      11 UNK        -0.1021 
     13 C13       -75.5927   29.7749  -71.8078 C.ar      11 UNK        -0.0753 
     14 C14       -76.2311   28.5735  -71.4774 C.ar      11 UNK        -0.0933 
     15 C15       -74.1421   29.9801  -71.3548 C.3       11 UNK         0.0166 
     16 S16       -73.2160   31.3291  -72.1703 S.3       11 UNK        -0.2615 
     17 C17       -73.2485   30.8050  -73.9218 C.3       11 UNK        -0.0865 
     18 CA        -71.8913   30.4101  -74.5747 C.3       10 UNK         0.0862 
     19 C         -70.7686   31.4878  -74.4659 C.2       10 UNK         0.5551 
     20 N         -69.5003   31.1168  -74.3443 N.am      10 UNK        -0.7319 
     21 O         -71.0438   32.6822  -74.5537 O.2       10 UNK        -0.5018 
     22 N         -71.5167   29.0047  -74.3309 N.am      10 UNK        -0.4509 
     23 C         -70.9746   28.4646  -73.2315 C.2       10 UNK         0.4899 
     24 O         -70.6697   29.0961  -72.2196 O.2       10 UNK        -0.4839 
     25 CA        -70.7063   26.9472  -73.3076 C.3       9 UNK         0.0222 
     26 CB        -70.1795   26.3573  -71.9813 C.3       9 UNK        -0.1966 
     27 N         -71.8669   26.1898  -73.7963 N.am      9 UNK        -0.4218 
     28 C         -73.0822   26.1078  -73.2376 C.2       9 UNK         0.5020 
     29 O         -73.3728   26.6456  -72.1693 O.2       9 UNK        -0.5274 
     30 CA        -74.1512   25.2659  -73.9707 C.3       8 UNK         0.0270 
     31 CB        -75.5673   25.5836  -73.4639 C.3       8 UNK        -0.1976 
     32 N         -74.1567   25.3811  -75.4347 N.am      8 UNK        -0.4313 
     33 C         -73.2448   24.8671  -76.2710 C.2       8 UNK         0.5041 
     34 O         -72.1961   24.3449  -75.8908 O.2       8 UNK        -0.5577 
     35 CA        -73.5337   24.9391  -77.7754 C.3       7 UNK         0.0284 
     36 CB        -74.3745   23.7278  -78.2049 C.3       7 UNK        -0.1958 
     37 N         -74.2318   26.1719  -78.1481 N.am      7 UNK        -0.4454 
     38 C         -73.6726   27.1713  -78.8450 C.2       7 UNK         0.5089 
     39 O         -72.5027   27.1689  -79.2303 O.2       7 UNK        -0.5125 
     40 CA        -74.5604   28.3807  -79.1946 C.3       6 UNK         0.0408 
     41 CB        -75.1498   28.2183  -80.6048 C.3       6 UNK        -0.1791 
     42 N         -75.6492   28.6163  -78.2452 N.am      6 UNK        -0.4762 
     43 C         -75.4841   29.0015  -76.9718 C.2       6 UNK         0.5007 
     44 O         -74.3849   29.2165  -76.4655 O.2       6 UNK        -0.5032 
     45 CA        -76.7613   29.1587  -76.1209 C.3       5 UNK         0.0783 
     46 C46       -77.2363   30.6373  -76.1599 C.3       11 UNK        -0.0857 
     47 S47       -78.8578   30.9215  -75.3639 S.3       11 UNK        -0.2512 
     48 C48       -78.3835   31.5563  -73.7239 C.3       11 UNK         0.0225 
     49 N         -77.8357   28.2239  -76.4855 N.am      5 UNK        -0.4615 
     50 C         -77.7539   26.8884  -76.5373 C.2       4 UNK         0.5053 
     51 O         -76.6974   26.2599  -76.4273 O.2       4 UNK        -0.5105 
     52 CA        -79.0920   26.1666  -76.7677 C.3       4 UNK         0.0263 
     53 CB        -79.5327   26.2480  -78.2437 C.3       4 UNK        -0.1981 
     54 N         -79.0932   24.7897  -76.2615 N.am      4 UNK        -0.4224 
     55 C         -78.4915   23.7011  -76.7647 C.2       3 UNK         0.4895 
     56 O         -77.8968   23.6633  -77.8414 O.2       3 UNK        -0.5091 
     57 CA        -78.5798   22.4145  -75.9233 C.3       3 UNK         0.0250 
     58 CB        -77.2858   22.1937  -75.1225 C.3       3 UNK        -0.1996 
     59 N         -79.7224   22.4068  -75.0042 N.am      3 UNK        -0.4254 
     60 C         -80.9818   22.1324  -75.3716 C.2       2 UNK         0.5004 
     61 O         -81.3100   21.8057  -76.5126 O.2       2 UNK        -0.5226 
     62 CA        -82.0592   22.2506  -74.2816 C.3       2 UNK         0.0269 
     63 CB        -82.1716   20.9403  -73.4853 C.3       2 UNK        -0.1926 
     64 N         -81.8321   23.3650  -73.3552 N.am      2 UNK        -0.4687 
     65 C         -81.9489   24.6630  -73.6762 C.2       1 UNK         0.5165 
     66 O         -82.2046   25.0524  -74.8162 O.2       1 UNK        -0.5079 
     67 H67       -82.3710   23.0077  -69.0202 H         1 UNK         0.0900 
     68 H68       -82.5248   24.5982  -68.2691 H         1 UNK         0.0900 
     69 H69       -80.9802   24.0925  -68.9558 H         1 UNK         0.0900 
     70 H70       -80.5653   25.0569  -70.9399 H         1 UNK         0.2959 
     71 H71       -82.7063   26.2478  -72.5117 H         1 UNK         0.1079 
     72 H72       -80.7685   27.5904  -72.2018 H         1 UNK         0.0837 
     73 H73       -80.8478   27.1903  -73.8849 H         1 UNK         0.0837 
     74 H74       -77.5292   26.3721  -70.9426 H         1 UNK         0.0685 
     75 H75       -79.0152   27.2415  -70.6898 H         1 UNK         0.0685 
     76 H76       -79.2793   29.1543  -72.8500 H         1 UNK         0.1434 
     77 H77       -75.8425   31.6837  -72.7844 H         1 UNK         0.1329 
     78 H78       -75.6837   27.8197  -70.9273 H         1 UNK         0.1335 
     79 H79       -74.1436   30.1714  -70.2813 H         1 UNK         0.0680 
     80 H80       -73.5780   29.0604  -71.4987 H         1 UNK         0.0680 
     81 H81       -73.6876   31.6267  -74.4898 H         1 UNK         0.1032 
     82 H82       -73.9516   29.9797  -74.0343 H         1 UNK         0.1032 
     83 H83       -72.0909   30.4047  -75.6468 H         1 UNK         0.0461 
     84 H84       -69.2627   30.1418  -74.2612 H         1 UNK         0.3453 
     85 H85       -68.7807   31.8206  -74.2951 H         1 UNK         0.3453 
     86 H86       -71.7134   28.3835  -75.1020 H         1 UNK         0.2984 
     87 H87       -69.9228   26.8139  -74.0550 H         1 UNK         0.0554 
     88 H88       -69.2484   26.8401  -71.6825 H         1 UNK         0.0847 
     89 H89       -69.9752   25.2907  -72.0741 H         1 UNK         0.0847 
     90 H90       -70.8900   26.4932  -71.1653 H         1 UNK         0.0847 
     91 H91       -71.7315   25.6448  -74.6464 H         1 UNK         0.3141 
     92 H92       -73.9410   24.2229  -73.7256 H         1 UNK         0.0743 
     93 H93       -75.6634   25.3843  -72.3962 H         1 UNK         0.0784 
     94 H94       -75.8217   26.6312  -73.6291 H         1 UNK         0.0784 
     95 H95       -76.3190   24.9830  -73.9719 H         1 UNK         0.0784 
     96 H96       -75.0032   25.7823  -75.8333 H         1 UNK         0.3213 
     97 H97       -72.5741   24.8727  -78.2929 H         1 UNK         0.0855 
     98 H98       -75.3278   23.6975  -77.6787 H         1 UNK         0.0814 
     99 H99       -73.8538   22.7940  -77.9883 H         1 UNK         0.0814 
    100 H100      -74.5817   23.7447  -79.2749 H         1 UNK         0.0814 
    101 H101      -75.1910   26.2718  -77.8320 H         1 UNK         0.3105 
    102 H102      -73.9210   29.2661  -79.1939 H         1 UNK         0.0547 
    103 H103      -74.3601   28.0699  -81.3428 H         1 UNK         0.0837 
    104 H104      -75.8185   27.3588  -80.6672 H         1 UNK         0.0837 
    105 H105      -75.7092   29.1037  -80.9072 H         1 UNK         0.0837 
    106 H106      -76.5899   28.4539  -78.5749 H         1 UNK         0.3020 
    107 H107      -76.4809   28.9175  -75.0929 H         1 UNK         0.1245 
    108 H108      -77.3309   30.9783  -77.1929 H         1 UNK         0.0781 
    109 H109      -76.4904   31.2875  -75.6982 H         1 UNK         0.0781 
    110 H110      -79.2849   31.8462  -73.1821 H         1 UNK         0.0836 
    111 H111      -77.7939   32.4662  -73.8469 H         1 UNK         0.0836 
    112 H112      -78.7432   28.6548  -76.5918 H         1 UNK         0.3022 
    113 H113      -79.8436   26.6843  -76.1696 H         1 UNK         0.0747 
    114 H114      -80.4575   25.6959  -78.4118 H         1 UNK         0.0793 
    115 H115      -78.7757   25.8502  -78.9201 H         1 UNK         0.0793 
    116 H116      -79.7153   27.2812  -78.5410 H         1 UNK         0.0793 
    117 H117      -79.5470   24.6776  -75.3667 H         1 UNK         0.3047 
    118 H118      -78.6859   21.5821  -76.6227 H         1 UNK         0.0822 
    119 H119      -77.2667   21.2008  -74.6730 H         1 UNK         0.0807 
    120 H120      -77.1776   22.9223  -74.3204 H         1 UNK         0.0807 
    121 H121      -76.4056   22.2755  -75.7621 H         1 UNK         0.0807 
    122 H122      -79.5440   22.6526  -74.0410 H         1 UNK         0.2946 
    123 H123      -83.0121   22.4240  -74.7875 H         1 UNK         0.1144 
    124 H124      -82.3625   20.0958  -74.1493 H         1 UNK         0.0793 
    125 H125      -82.9941   20.9799  -72.7708 H         1 UNK         0.0793 
    126 H126      -81.2568   20.7205  -72.9334 H         1 UNK         0.0793 
    127 H127      -81.6265   23.1329  -72.3944 H         1 UNK         0.2896 
@<TRIPOS>BOND
     1    1    2 1    
     2    1   67 1    
     3    1   68 1    
     4    1   69 1    
     5    2    3 2    
     6    2    4 am   BACKBONE|DICT|INTERRES
     7    4    5 1    
     8    4   70 1    
     9    5    6 1    
    10    5   65 1    
    11    5   71 1    
    12    6    7 1    
    13    6   72 1    
    14    6   73 1    
    15    7    8 1    
    16    8    9 1    
    17    8   74 1    
    18    8   75 1    
    19    9   10 ar   
    20    9   14 ar   
    21   10   11 ar   
    22   10   76 1    
    23   11   12 ar   
    24   11   48 1    
    25   12   13 ar   
    26   12   77 1    
    27   13   14 ar   
    28   13   15 1    
    29   14   78 1    
    30   15   16 1    
    31   15   79 1    
    32   15   80 1    
    33   16   17 1    
    34   17   18 1    
    35   17   81 1    
    36   17   82 1    
    37   18   19 1    
    38   18   22 1    
    39   18   83 1    
    40   19   20 am   BACKBONE|DICT|INTERRES
    41   19   21 2    
    42   20   84 1    
    43   20   85 1    
    44   22   23 am   BACKBONE|DICT|INTERRES
    45   22   86 1    
    46   23   24 2    
    47   23   25 1    
    48   25   26 1    
    49   25   27 1    
    50   25   87 1    
    51   26   88 1    
    52   26   89 1    
    53   26   90 1    
    54   27   28 am   BACKBONE|DICT|INTERRES
    55   27   91 1    
    56   28   29 2    
    57   28   30 1    
    58   30   31 1    
    59   30   32 1    
    60   30   92 1    
    61   31   93 1    
    62   31   94 1    
    63   31   95 1    
    64   32   33 am   BACKBONE|DICT|INTERRES
    65   32   96 1    
    66   33   34 2    
    67   33   35 1    
    68   35   36 1    
    69   35   37 1    
    70   35   97 1    
    71   36   98 1    
    72   36   99 1    
    73   36  100 1    
    74   37   38 am   BACKBONE|DICT|INTERRES
    75   37  101 1    
    76   38   39 2    
    77   38   40 1    
    78   40   41 1    
    79   40   42 1    
    80   40  102 1    
    81   41  103 1    
    82   41  104 1    
    83   41  105 1    
    84   42   43 am   BACKBONE|DICT|INTERRES
    85   42  106 1    
    86   43   44 2    
    87   43   45 1    
    88   45   46 1    
    89   45   49 1    
    90   45  107 1    
    91   46   47 1    
    92   46  108 1    
    93   46  109 1    
    94   47   48 1    
    95   48  110 1    
    96   48  111 1    
    97   49   50 am   BACKBONE|DICT|INTERRES
    98   49  112 1    
    99   50   51 2    
   100   50   52 1    
   101   52   53 1    
   102   52   54 1    
   103   52  113 1    
   104   53  114 1    
   105   53  115 1    
   106   53  116 1    
   107   54   55 am   BACKBONE|DICT|INTERRES
   108   54  117 1    
   109   55   56 2    
   110   55   57 1    
   111   57   58 1    
   112   57   59 1    
   113   57  118 1    
   114   58  119 1    
   115   58  120 1    
   116   58  121 1    
   117   59   60 am   BACKBONE|DICT|INTERRES
   118   59  122 1    
   119   60   61 2    
   120   60   62 1    
   121   62   63 1    
   122   62   64 1    
   123   62  123 1    
   124   63  124 1    
   125   63  125 1    
   126   63  126 1    
   127   64   65 am   BACKBONE|DICT|INTERRES
   128   64  127 1    
   129   65   66 2    
@<TRIPOS>SUBSTRUCTURE
     1 UNK         1 GROUP             0       ****    0 ROOT    
