@<TRIPOS>MOLECULE
3R135
127   129    1
SMALL
USER_CHARGES


@<TRIPOS>ATOM
      1 CA        -80.6165   25.2360  -69.5243 C.3       0 UNK        -0.1998 
      2 C         -81.7151   25.7642  -70.4345 C.2       0 UNK         0.4909 
      3 O         -82.8935   25.5294  -70.1662 O.2       0 UNK        -0.5240 
      4 N         -81.3353   26.4650  -71.5102 N.am      1 UNK        -0.4739 
      5 CA        -82.2487   27.0581  -72.5007 C.3       1 UNK         0.0864 
      6 C6        -81.9570   28.5639  -72.7410 C.3       11 UNK        -0.0881 
      7 S7        -82.1902   29.5478  -71.2171 S.3       11 UNK        -0.2682 
      8 C8        -80.9971   30.9156  -71.4425 C.3       11 UNK         0.0289 
      9 C9        -79.5113   30.5471  -71.3876 C.ar      11 UNK        -0.0687 
     10 C10       -79.0530   29.2634  -71.0680 C.ar      11 UNK        -0.0823 
     11 C11       -77.6912   28.9603  -71.1037 C.ar      11 UNK        -0.0830 
     12 C12       -76.7704   29.9723  -71.3819 C.ar      11 UNK        -0.1021 
     13 C13       -77.1997   31.2719  -71.6812 C.ar      11 UNK        -0.0753 
     14 C14       -78.5727   31.5401  -71.6870 C.ar      11 UNK        -0.0933 
     15 C15       -76.2420   32.4180  -72.0247 C.3       11 UNK         0.0166 
     16 S16       -74.4538   32.0552  -71.9162 S.3       11 UNK        -0.2615 
     17 C17       -74.1996   31.0331  -73.4079 C.3       11 UNK        -0.0865 
     18 CA        -72.9287   30.1502  -73.3202 C.3       10 UNK         0.0862 
     19 C         -73.0626   28.9977  -72.2926 C.2       10 UNK         0.5551 
     20 N         -72.3316   29.0555  -71.1882 N.am      10 UNK        -0.7319 
     21 O         -73.8433   28.0672  -72.4744 O.2       10 UNK        -0.5018 
     22 N         -72.6164   29.5813  -74.6311 N.am      10 UNK        -0.4509 
     23 C         -71.6290   29.9736  -75.4425 C.2       10 UNK         0.4899 
     24 O         -70.8833   30.9263  -75.2081 O.2       10 UNK        -0.4839 
     25 CA        -71.4519   29.1526  -76.7351 C.3       9 UNK         0.0222 
     26 CB        -70.1405   29.4683  -77.4854 C.3       9 UNK        -0.1966 
     27 N         -71.5945   27.7106  -76.5049 N.am      9 UNK        -0.4218 
     28 C         -70.8467   26.9273  -75.7113 C.2       9 UNK         0.5020 
     29 O         -69.8491   27.3173  -75.1027 O.2       9 UNK        -0.5274 
     30 CA        -71.2898   25.4611  -75.5368 C.3       8 UNK         0.0270 
     31 CB        -71.8498   25.2459  -74.1206 C.3       8 UNK        -0.1976 
     32 N         -72.2885   25.0208  -76.5163 N.am      8 UNK        -0.4313 
     33 C         -72.0363   24.7753  -77.8097 C.2       8 UNK         0.5041 
     34 O         -70.9107   24.8184  -78.3076 O.2       8 UNK        -0.5577 
     35 CA        -73.2478   24.4704  -78.7087 C.3       7 UNK         0.0284 
     36 CB        -73.6426   22.9887  -78.6071 C.3       7 UNK        -0.1958 
     37 N         -74.4102   25.3132  -78.4099 N.am      7 UNK        -0.4454 
     38 C         -74.4471   26.6472  -78.5447 C.2       7 UNK         0.5089 
     39 O         -73.5100   27.3199  -78.9724 O.2       7 UNK        -0.5125 
     40 CA        -75.7222   27.3595  -78.0644 C.3       6 UNK         0.0408 
     41 CB        -76.8364   27.2826  -79.1203 C.3       6 UNK        -0.1791 
     42 N         -76.1976   26.8272  -76.7854 N.am      6 UNK        -0.4762 
     43 C         -75.5488   26.9788  -75.6204 C.2       6 UNK         0.5007 
     44 O         -74.5121   27.6318  -75.5040 O.2       6 UNK        -0.5032 
     45 CA        -76.1343   26.2491  -74.3954 C.3       5 UNK         0.0783 
     46 C46       -77.2088   27.1261  -73.7111 C.3       11 UNK        -0.0857 
     47 S47       -77.8570   26.3929  -72.1673 S.3       11 UNK        -0.2512 
     48 C48       -77.2153   27.5289  -70.8877 C.3       11 UNK         0.0225 
     49 N         -76.6390   24.9209  -74.7622 N.am      5 UNK        -0.4615 
     50 C         -75.8552   23.8971  -75.1327 C.2       4 UNK         0.5053 
     51 O         -74.6278   23.9620  -75.1745 O.2       4 UNK        -0.5105 
     52 CA        -76.5480   22.5981  -75.5849 C.3       4 UNK         0.0263 
     53 CB        -76.8439   21.6993  -74.3742 C.3       4 UNK        -0.1981 
     54 N         -77.7860   22.8349  -76.3293 N.am      4 UNK        -0.4224 
     55 C         -77.8807   23.5487  -77.4604 C.2       3 UNK         0.4895 
     56 O         -76.9044   23.9761  -78.0750 O.2       3 UNK        -0.5091 
     57 CA        -79.2934   23.8959  -77.9699 C.3       3 UNK         0.0250 
     58 CB        -79.6484   23.0300  -79.1889 C.3       3 UNK        -0.1996 
     59 N         -80.3595   23.7788  -76.9648 N.am      3 UNK        -0.4254 
     60 C         -80.4157   24.4438  -75.8012 C.2       2 UNK         0.5004 
     61 O         -79.5499   25.2384  -75.4246 O.2       2 UNK        -0.5226 
     62 CA        -81.5945   24.0835  -74.8822 C.3       2 UNK         0.0269 
     63 CB        -81.4186   22.6635  -74.3139 C.3       2 UNK        -0.1926 
     64 N         -81.7172   25.0104  -73.7584 N.am      2 UNK        -0.4687 
     65 C         -82.2461   26.2404  -73.8125 C.2       1 UNK         0.5165 
     66 O         -82.7394   26.7179  -74.8361 O.2       1 UNK        -0.5079 
     67 H67       -79.6241   25.5223  -69.8696 H         1 UNK         0.0900 
     68 H68       -80.7475   25.6257  -68.5152 H         1 UNK         0.0900 
     69 H69       -80.6581   24.1482  -69.4777 H         1 UNK         0.0900 
     70 H70       -80.3495   26.5854  -71.7049 H         1 UNK         0.2959 
     71 H71       -83.2760   26.9915  -72.1360 H         1 UNK         0.1079 
     72 H72       -82.6287   28.9749  -73.4970 H         1 UNK         0.0837 
     73 H73       -80.9454   28.6997  -73.1271 H         1 UNK         0.0837 
     74 H74       -81.2101   31.4003  -72.3966 H         1 UNK         0.0685 
     75 H75       -81.1923   31.6599  -70.6693 H         1 UNK         0.0685 
     76 H76       -79.7488   28.4781  -70.8222 H         1 UNK         0.1434 
     77 H77       -75.7203   29.7258  -71.3826 H         1 UNK         0.1329 
     78 H78       -78.9163   32.5364  -71.9316 H         1 UNK         0.1335 
     79 H79       -76.4490   33.2496  -71.3495 H         1 UNK         0.0680 
     80 H80       -76.4640   32.7780  -73.0304 H         1 UNK         0.0680 
     81 H81       -75.0805   30.4212  -73.6107 H         1 UNK         0.1032 
     82 H82       -74.1140   31.7165  -74.2542 H         1 UNK         0.1032 
     83 H83       -72.0991   30.7859  -73.0035 H         1 UNK         0.0461 
     84 H84       -71.7023   29.8248  -71.0202 H         1 UNK         0.3453 
     85 H85       -72.4161   28.3179  -70.5072 H         1 UNK         0.3453 
     86 H86       -73.1882   28.7796  -74.8958 H         1 UNK         0.2984 
     87 H87       -72.2792   29.4347  -77.3878 H         1 UNK         0.0554 
     88 H88       -70.0978   30.5201  -77.7708 H         1 UNK         0.0847 
     89 H89       -70.0574   28.8816  -78.4003 H         1 UNK         0.0847 
     90 H90       -69.2619   29.2628  -76.8733 H         1 UNK         0.0847 
     91 H91       -72.3983   27.2867  -76.9507 H         1 UNK         0.3141 
     92 H92       -70.4012   24.8371  -75.6514 H         1 UNK         0.0743 
     93 H93       -72.7476   25.8416  -73.9496 H         1 UNK         0.0784 
     94 H94       -72.1035   24.1998  -73.9478 H         1 UNK         0.0784 
     95 H95       -71.1211   25.5318  -73.3609 H         1 UNK         0.0784 
     96 H96       -73.2313   24.8705  -76.1644 H         1 UNK         0.3213 
     97 H97       -72.9529   24.6739  -79.7403 H         1 UNK         0.0855 
     98 H98       -73.9396   22.7189  -77.5938 H         1 UNK         0.0814 
     99 H99       -72.8079   22.3436  -78.8845 H         1 UNK         0.0814 
    100 H100      -74.4723   22.7516  -79.2734 H         1 UNK         0.0814 
    101 H101      -75.2588   24.8371  -78.1090 H         1 UNK         0.3105 
    102 H102      -75.4776   28.4137  -77.9159 H         1 UNK         0.0547 
    103 H103      -76.5109   27.7350  -80.0578 H         1 UNK         0.0837 
    104 H104      -77.1239   26.2552  -79.3422 H         1 UNK         0.0837 
    105 H105      -77.7285   27.8186  -78.7963 H         1 UNK         0.0837 
    106 H106      -77.0233   26.2456  -76.8050 H         1 UNK         0.3020 
    107 H107      -75.3137   26.1109  -73.6874 H         1 UNK         0.1245 
    108 H108      -78.0540   27.2929  -74.3815 H         1 UNK         0.0781 
    109 H109      -76.7970   28.1137  -73.5000 H         1 UNK         0.0781 
    110 H110      -76.1252   27.4749  -70.8851 H         1 UNK         0.0836 
    111 H111      -77.5429   27.1851  -69.9058 H         1 UNK         0.0836 
    112 H112      -77.6487   24.8228  -74.7942 H         1 UNK         0.3022 
    113 H113      -75.8612   22.0677  -76.2470 H         1 UNK         0.0747 
    114 H114      -77.2603   20.7403  -74.6831 H         1 UNK         0.0793 
    115 H115      -75.9316   21.4891  -73.8139 H         1 UNK         0.0793 
    116 H116      -77.5487   22.1671  -73.6853 H         1 UNK         0.0793 
    117 H117      -78.6415   22.5168  -75.9002 H         1 UNK         0.3047 
    118 H118      -79.2643   24.9396  -78.2893 H         1 UNK         0.0822 
    119 H119      -80.5970   23.3350  -79.6313 H         1 UNK         0.0807 
    120 H120      -79.7222   21.9738  -78.9267 H         1 UNK         0.0807 
    121 H121      -78.8885   23.1199  -79.9668 H         1 UNK         0.0807 
    122 H122      -81.1046   23.1329  -77.1848 H         1 UNK         0.2946 
    123 H123      -82.5135   24.1233  -75.4720 H         1 UNK         0.1144 
    124 H124      -82.2483   22.3946  -73.6596 H         1 UNK         0.0793 
    125 H125      -80.4966   22.5695  -73.7381 H         1 UNK         0.0793 
    126 H126      -81.3863   21.9156  -75.1071 H         1 UNK         0.0793 
    127 H127      -81.3106   24.7168  -72.8828 H         1 UNK         0.2896 
@<TRIPOS>BOND
     1    1    2 1    
     2    1   67 1    
     3    1   68 1    
     4    1   69 1    
     5    2    3 2    
     6    2    4 am   BACKBONE|DICT|INTERRES
     7    4    5 1    
     8    4   70 1    
     9    5    6 1    
    10    5   65 1    
    11    5   71 1    
    12    6    7 1    
    13    6   72 1    
    14    6   73 1    
    15    7    8 1    
    16    8    9 1    
    17    8   74 1    
    18    8   75 1    
    19    9   10 ar   
    20    9   14 ar   
    21   10   11 ar   
    22   10   76 1    
    23   11   12 ar   
    24   11   48 1    
    25   12   13 ar   
    26   12   77 1    
    27   13   14 ar   
    28   13   15 1    
    29   14   78 1    
    30   15   16 1    
    31   15   79 1    
    32   15   80 1    
    33   16   17 1    
    34   17   18 1    
    35   17   81 1    
    36   17   82 1    
    37   18   19 1    
    38   18   22 1    
    39   18   83 1    
    40   19   20 am   BACKBONE|DICT|INTERRES
    41   19   21 2    
    42   20   84 1    
    43   20   85 1    
    44   22   23 am   BACKBONE|DICT|INTERRES
    45   22   86 1    
    46   23   24 2    
    47   23   25 1    
    48   25   26 1    
    49   25   27 1    
    50   25   87 1    
    51   26   88 1    
    52   26   89 1    
    53   26   90 1    
    54   27   28 am   BACKBONE|DICT|INTERRES
    55   27   91 1    
    56   28   29 2    
    57   28   30 1    
    58   30   31 1    
    59   30   32 1    
    60   30   92 1    
    61   31   93 1    
    62   31   94 1    
    63   31   95 1    
    64   32   33 am   BACKBONE|DICT|INTERRES
    65   32   96 1    
    66   33   34 2    
    67   33   35 1    
    68   35   36 1    
    69   35   37 1    
    70   35   97 1    
    71   36   98 1    
    72   36   99 1    
    73   36  100 1    
    74   37   38 am   BACKBONE|DICT|INTERRES
    75   37  101 1    
    76   38   39 2    
    77   38   40 1    
    78   40   41 1    
    79   40   42 1    
    80   40  102 1    
    81   41  103 1    
    82   41  104 1    
    83   41  105 1    
    84   42   43 am   BACKBONE|DICT|INTERRES
    85   42  106 1    
    86   43   44 2    
    87   43   45 1    
    88   45   46 1    
    89   45   49 1    
    90   45  107 1    
    91   46   47 1    
    92   46  108 1    
    93   46  109 1    
    94   47   48 1    
    95   48  110 1    
    96   48  111 1    
    97   49   50 am   BACKBONE|DICT|INTERRES
    98   49  112 1    
    99   50   51 2    
   100   50   52 1    
   101   52   53 1    
   102   52   54 1    
   103   52  113 1    
   104   53  114 1    
   105   53  115 1    
   106   53  116 1    
   107   54   55 am   BACKBONE|DICT|INTERRES
   108   54  117 1    
   109   55   56 2    
   110   55   57 1    
   111   57   58 1    
   112   57   59 1    
   113   57  118 1    
   114   58  119 1    
   115   58  120 1    
   116   58  121 1    
   117   59   60 am   BACKBONE|DICT|INTERRES
   118   59  122 1    
   119   60   61 2    
   120   60   62 1    
   121   62   63 1    
   122   62   64 1    
   123   62  123 1    
   124   63  124 1    
   125   63  125 1    
   126   63  126 1    
   127   64   65 am   BACKBONE|DICT|INTERRES
   128   64  127 1    
   129   65   66 2    
@<TRIPOS>SUBSTRUCTURE
     1 UNK         1 GROUP             0       ****    0 ROOT    
