@<TRIPOS>MOLECULE
3R135
127   129    1
SMALL
USER_CHARGES


@<TRIPOS>ATOM
      1 CA        -85.0910   30.9697  -76.4613 C.3       0 UNK        -0.1998 
      2 C         -83.9963   29.9135  -76.4331 C.2       0 UNK         0.4909 
      3 O         -83.3546   29.6696  -77.4556 O.2       0 UNK        -0.5240 
      4 N         -83.7729   29.2902  -75.2688 N.am      1 UNK        -0.4739 
      5 CA        -82.8103   28.1997  -75.0765 C.3       1 UNK         0.0864 
      6 C6        -82.5014   28.0000  -73.5659 C.3       11 UNK        -0.0881 
      7 S7        -80.7868   27.4639  -73.2447 S.3       11 UNK        -0.2682 
      8 C8        -80.2411   28.7433  -72.0648 C.3       11 UNK         0.0289 
      9 C9        -78.8096   28.5347  -71.5838 C.ar      11 UNK        -0.0687 
     10 C10       -78.4403   27.3395  -70.9575 C.ar      11 UNK        -0.0823 
     11 C11       -77.1383   27.1578  -70.4811 C.ar      11 UNK        -0.0830 
     12 C12       -76.2014   28.1825  -70.6284 C.ar      11 UNK        -0.1021 
     13 C13       -76.5610   29.3879  -71.2355 C.ar      11 UNK        -0.0753 
     14 C14       -77.8629   29.5570  -71.7188 C.ar      11 UNK        -0.0933 
     15 C15       -75.5448   30.5133  -71.3343 C.3       11 UNK         0.0166 
     16 S16       -74.7715   30.5544  -72.9761 S.3       11 UNK        -0.2615 
     17 C17       -73.0867   31.1430  -72.5751 C.3       11 UNK        -0.0865 
     18 CA        -72.0020   30.0389  -72.7280 C.3       10 UNK         0.0862 
     19 C         -71.9841   29.0330  -71.5442 C.2       10 UNK         0.5551 
     20 N         -72.0885   27.7302  -71.7627 N.am      10 UNK        -0.7319 
     21 O         -71.8342   29.4452  -70.3966 O.2       10 UNK        -0.5018 
     22 N         -72.0227   29.4426  -74.0762 N.am      10 UNK        -0.4509 
     23 C         -71.4601   30.0273  -75.1419 C.2       10 UNK         0.4899 
     24 O         -70.7021   30.9967  -75.0646 O.2       10 UNK        -0.4839 
     25 CA        -71.8598   29.4936  -76.5284 C.3       9 UNK         0.0222 
     26 CB        -70.9857   30.0485  -77.6750 C.3       9 UNK        -0.1966 
     27 N         -71.9661   28.0354  -76.6002 N.am      9 UNK        -0.4218 
     28 C         -70.9766   27.1336  -76.5156 C.2       9 UNK         0.5020 
     29 O         -69.8028   27.4283  -76.2848 O.2       9 UNK        -0.5274 
     30 CA        -71.3351   25.6479  -76.7392 C.3       8 UNK         0.0270 
     31 CB        -70.9593   24.8047  -75.5084 C.3       8 UNK        -0.1976 
     32 N         -72.7453   25.4134  -77.0695 N.am      8 UNK        -0.4313 
     33 C         -73.3324   25.6887  -78.2430 C.2       8 UNK         0.5041 
     34 O         -72.7223   26.0840  -79.2366 O.2       8 UNK        -0.5577 
     35 CA        -74.8679   25.5653  -78.2971 C.3       7 UNK         0.0284 
     36 CB        -75.2936   24.1360  -78.6662 C.3       7 UNK        -0.1958 
     37 N         -75.5170   25.9717  -77.0444 N.am      7 UNK        -0.4454 
     38 C         -75.4715   27.2099  -76.5302 C.2       7 UNK         0.5089 
     39 O         -74.9276   28.1603  -77.0904 O.2       7 UNK        -0.5125 
     40 CA        -76.0725   27.4097  -75.1306 C.3       6 UNK         0.0408 
     41 CB        -77.5869   27.6434  -75.2069 C.3       6 UNK        -0.1791 
     42 N         -75.7736   26.2827  -74.2440 N.am      6 UNK        -0.4762 
     43 C         -74.5546   26.0319  -73.7463 C.2       6 UNK         0.5007 
     44 O         -73.5792   26.7603  -73.9468 O.2       6 UNK        -0.5032 
     45 CA        -74.3658   24.7225  -72.9491 C.3       5 UNK         0.0783 
     46 C46       -74.6583   24.8897  -71.4322 C.3       11 UNK        -0.0857 
     47 S47       -76.3896   24.5377  -70.9502 S.3       11 UNK        -0.2512 
     48 C48       -76.7587   25.8689  -69.7720 C.3       11 UNK         0.0225 
     49 N         -75.1003   23.5961  -73.5312 N.am      5 UNK        -0.4615 
     50 C         -74.8642   23.0390  -74.7228 C.2       4 UNK         0.5053 
     51 O         -73.9312   23.3653  -75.4527 O.2       4 UNK        -0.5105 
     52 CA        -75.8716   21.9756  -75.2004 C.3       4 UNK         0.0263 
     53 CB        -75.4549   20.5821  -74.7049 C.3       4 UNK        -0.1981 
     54 N         -77.2591   22.2472  -74.7969 N.am      4 UNK        -0.4224 
     55 C         -77.9359   23.3645  -75.0994 C.2       3 UNK         0.4895 
     56 O         -77.4515   24.2886  -75.7560 O.2       3 UNK        -0.5091 
     57 CA        -79.3606   23.4864  -74.5258 C.3       3 UNK         0.0250 
     58 CB        -79.3253   23.6160  -72.9933 C.3       3 UNK        -0.1996 
     59 N         -80.0686   24.6523  -75.0560 N.am      3 UNK        -0.4254 
     60 C         -80.5291   24.7790  -76.3054 C.2       2 UNK         0.5004 
     61 O         -80.5405   23.8699  -77.1378 O.2       2 UNK        -0.5226 
     62 CA        -81.1296   26.1451  -76.6526 C.3       2 UNK         0.0269 
     63 CB        -80.8862   26.5385  -78.1204 C.3       2 UNK        -0.1926 
     64 N         -82.5661   26.0634  -76.4015 N.am      2 UNK        -0.4687 
     65 C         -83.3608   26.8991  -75.7189 C.2       1 UNK         0.5165 
     66 O         -84.5556   26.6369  -75.5682 O.2       1 UNK        -0.5079 
     67 H67       -85.5661   31.0910  -75.4879 H         1 UNK         0.0900 
     68 H68       -85.8602   30.6929  -77.1818 H         1 UNK         0.0900 
     69 H69       -84.6760   31.9324  -76.7582 H         1 UNK         0.0900 
     70 H70       -84.3586   29.5041  -74.4742 H         1 UNK         0.2959 
     71 H71       -81.9052   28.5245  -75.5896 H         1 UNK         0.1079 
     72 H72       -83.1881   27.2905  -73.0989 H         1 UNK         0.0837 
     73 H73       -82.6607   28.9369  -73.0295 H         1 UNK         0.0837 
     74 H74       -80.9047   28.7388  -71.1990 H         1 UNK         0.0685 
     75 H75       -80.3478   29.7220  -72.5355 H         1 UNK         0.0685 
     76 H76       -79.1705   26.5508  -70.8370 H         1 UNK         0.1434 
     77 H77       -75.1952   28.0512  -70.2542 H         1 UNK         0.1329 
     78 H78       -78.1387   30.4918  -72.1873 H         1 UNK         0.1335 
     79 H79       -74.7828   30.3861  -70.5637 H         1 UNK         0.0680 
     80 H80       -76.0238   31.4735  -71.1371 H         1 UNK         0.0680 
     81 H81       -72.8590   31.9656  -73.2544 H         1 UNK         0.1032 
     82 H82       -73.0593   31.5870  -71.5784 H         1 UNK         0.1032 
     83 H83       -71.0377   30.5386  -72.6172 H         1 UNK         0.0461 
     84 H84       -72.3194   27.3738  -72.6826 H         1 UNK         0.3453 
     85 H85       -72.0329   27.1029  -70.9777 H         1 UNK         0.3453 
     86 H86       -72.6298   28.6401  -74.2010 H         1 UNK         0.2984 
     87 H87       -72.8708   29.8665  -76.6963 H         1 UNK         0.0554 
     88 H88       -71.3152   29.6715  -78.6432 H         1 UNK         0.0847 
     89 H89       -69.9352   29.7842  -77.5507 H         1 UNK         0.0847 
     90 H90       -71.0418   31.1369  -77.7176 H         1 UNK         0.0847 
     91 H91       -72.9048   27.6935  -76.7713 H         1 UNK         0.3141 
     92 H92       -70.7324   25.3009  -77.5808 H         1 UNK         0.0743 
     93 H93       -69.8964   24.8943  -75.2804 H         1 UNK         0.0784 
     94 H94       -71.5088   25.1202  -74.6221 H         1 UNK         0.0784 
     95 H95       -71.1647   23.7468  -75.6731 H         1 UNK         0.0784 
     96 H96       -73.3118   24.9847  -76.3424 H         1 UNK         0.3213 
     97 H97       -75.2245   26.2374  -79.0805 H         1 UNK         0.0855 
     98 H98       -74.9136   23.4044  -77.9544 H         1 UNK         0.0814 
     99 H99       -74.9095   23.8599  -79.6489 H         1 UNK         0.0814 
    100 H100      -76.3790   24.0392  -78.7014 H         1 UNK         0.0814 
    101 H101      -76.0449   25.2635  -76.5379 H         1 UNK         0.3105 
    102 H102      -75.6218   28.3052  -74.6997 H         1 UNK         0.0547 
    103 H103      -78.0041   27.8057  -74.2150 H         1 UNK         0.0837 
    104 H104      -77.8136   28.5284  -75.8023 H         1 UNK         0.0837 
    105 H105      -78.1082   26.8028  -75.6617 H         1 UNK         0.0837 
    106 H106      -76.5103   25.6070  -74.0981 H         1 UNK         0.3020 
    107 H107      -73.3046   24.4806  -73.0417 H         1 UNK         0.1245 
    108 H108      -74.3608   25.8785  -71.0794 H         1 UNK         0.0781 
    109 H109      -74.0344   24.1894  -70.8750 H         1 UNK         0.0781 
    110 H110      -75.9080   26.0220  -69.1060 H         1 UNK         0.0836 
    111 H111      -77.5855   25.5511  -69.1350 H         1 UNK         0.0836 
    112 H112      -75.8893   23.2719  -72.9904 H         1 UNK         0.3022 
    113 H113      -75.8471   21.9689  -76.2914 H         1 UNK         0.0747 
    114 H114      -76.0984   19.8046  -75.1171 H         1 UNK         0.0793 
    115 H115      -74.4336   20.3494  -75.0105 H         1 UNK         0.0793 
    116 H116      -75.4938   20.5104  -73.6171 H         1 UNK         0.0793 
    117 H117      -77.7189   21.5324  -74.2511 H         1 UNK         0.3047 
    118 H118      -79.9154   22.5861  -74.7981 H         1 UNK         0.0822 
    119 H119      -78.8147   22.7735  -72.5256 H         1 UNK         0.0807 
    120 H120      -80.3327   23.6479  -72.5774 H         1 UNK         0.0807 
    121 H121      -78.8117   24.5261  -72.6810 H         1 UNK         0.0807 
    122 H122      -80.1339   25.4479  -74.4352 H         1 UNK         0.2946 
    123 H123      -80.6325   26.8834  -76.0271 H         1 UNK         0.1144 
    124 H124      -79.8193   26.5521  -78.3475 H         1 UNK         0.0793 
    125 H125      -81.2769   27.5344  -78.3312 H         1 UNK         0.0793 
    126 H126      -81.3597   25.8418  -78.8133 H         1 UNK         0.0793 
    127 H127      -82.9899   25.2173  -76.7565 H         1 UNK         0.2896 
@<TRIPOS>BOND
     1    1    2 1    
     2    1   67 1    
     3    1   68 1    
     4    1   69 1    
     5    2    3 2    
     6    2    4 am   BACKBONE|DICT|INTERRES
     7    4    5 1    
     8    4   70 1    
     9    5    6 1    
    10    5   65 1    
    11    5   71 1    
    12    6    7 1    
    13    6   72 1    
    14    6   73 1    
    15    7    8 1    
    16    8    9 1    
    17    8   74 1    
    18    8   75 1    
    19    9   10 ar   
    20    9   14 ar   
    21   10   11 ar   
    22   10   76 1    
    23   11   12 ar   
    24   11   48 1    
    25   12   13 ar   
    26   12   77 1    
    27   13   14 ar   
    28   13   15 1    
    29   14   78 1    
    30   15   16 1    
    31   15   79 1    
    32   15   80 1    
    33   16   17 1    
    34   17   18 1    
    35   17   81 1    
    36   17   82 1    
    37   18   19 1    
    38   18   22 1    
    39   18   83 1    
    40   19   20 am   BACKBONE|DICT|INTERRES
    41   19   21 2    
    42   20   84 1    
    43   20   85 1    
    44   22   23 am   BACKBONE|DICT|INTERRES
    45   22   86 1    
    46   23   24 2    
    47   23   25 1    
    48   25   26 1    
    49   25   27 1    
    50   25   87 1    
    51   26   88 1    
    52   26   89 1    
    53   26   90 1    
    54   27   28 am   BACKBONE|DICT|INTERRES
    55   27   91 1    
    56   28   29 2    
    57   28   30 1    
    58   30   31 1    
    59   30   32 1    
    60   30   92 1    
    61   31   93 1    
    62   31   94 1    
    63   31   95 1    
    64   32   33 am   BACKBONE|DICT|INTERRES
    65   32   96 1    
    66   33   34 2    
    67   33   35 1    
    68   35   36 1    
    69   35   37 1    
    70   35   97 1    
    71   36   98 1    
    72   36   99 1    
    73   36  100 1    
    74   37   38 am   BACKBONE|DICT|INTERRES
    75   37  101 1    
    76   38   39 2    
    77   38   40 1    
    78   40   41 1    
    79   40   42 1    
    80   40  102 1    
    81   41  103 1    
    82   41  104 1    
    83   41  105 1    
    84   42   43 am   BACKBONE|DICT|INTERRES
    85   42  106 1    
    86   43   44 2    
    87   43   45 1    
    88   45   46 1    
    89   45   49 1    
    90   45  107 1    
    91   46   47 1    
    92   46  108 1    
    93   46  109 1    
    94   47   48 1    
    95   48  110 1    
    96   48  111 1    
    97   49   50 am   BACKBONE|DICT|INTERRES
    98   49  112 1    
    99   50   51 2    
   100   50   52 1    
   101   52   53 1    
   102   52   54 1    
   103   52  113 1    
   104   53  114 1    
   105   53  115 1    
   106   53  116 1    
   107   54   55 am   BACKBONE|DICT|INTERRES
   108   54  117 1    
   109   55   56 2    
   110   55   57 1    
   111   57   58 1    
   112   57   59 1    
   113   57  118 1    
   114   58  119 1    
   115   58  120 1    
   116   58  121 1    
   117   59   60 am   BACKBONE|DICT|INTERRES
   118   59  122 1    
   119   60   61 2    
   120   60   62 1    
   121   62   63 1    
   122   62   64 1    
   123   62  123 1    
   124   63  124 1    
   125   63  125 1    
   126   63  126 1    
   127   64   65 am   BACKBONE|DICT|INTERRES
   128   64  127 1    
   129   65   66 2    
@<TRIPOS>SUBSTRUCTURE
     1 UNK         1 GROUP             0       ****    0 ROOT    
