@<TRIPOS>MOLECULE
3R135
127   129    1
SMALL
USER_CHARGES


@<TRIPOS>ATOM
      1 CA        -82.6105   26.0336  -74.4371 C.3       0 UNK        -0.1998 
      2 C         -82.3911   27.5359  -74.3453 C.2       0 UNK         0.4909 
      3 O         -83.3518   28.2892  -74.1888 O.2       0 UNK        -0.5240 
      4 N         -81.1328   27.9732  -74.4595 N.am      1 UNK        -0.4739 
      5 CA        -80.7029   29.3771  -74.3824 C.3       1 UNK         0.0864 
      6 C6        -79.4601   29.5266  -73.4617 C.3       11 UNK        -0.0881 
      7 S7        -79.8308   29.0660  -71.7329 S.3       11 UNK        -0.2682 
      8 C8        -79.2261   27.3436  -71.6625 C.3       11 UNK         0.0289 
      9 C9        -77.8478   27.1716  -71.0225 C.ar      11 UNK        -0.0687 
     10 C10       -77.5845   26.0043  -70.2966 C.ar      11 UNK        -0.0823 
     11 C11       -76.3379   25.7996  -69.6990 C.ar      11 UNK        -0.0830 
     12 C12       -75.3410   26.7675  -69.8408 C.ar      11 UNK        -0.1021 
     13 C13       -75.5868   27.9430  -70.5546 C.ar      11 UNK        -0.0753 
     14 C14       -76.8389   28.1371  -71.1472 C.ar      11 UNK        -0.0933 
     15 C15       -74.5150   29.0220  -70.6273 C.3       11 UNK         0.0166 
     16 S16       -73.7307   29.1189  -72.2703 S.3       11 UNK        -0.2615 
     17 C17       -74.3461   30.7187  -72.8966 C.3       11 UNK        -0.0865 
     18 CA        -75.4373   30.5722  -73.9883 C.3       10 UNK         0.0862 
     19 C         -76.1888   31.9254  -74.1734 C.2       10 UNK         0.5551 
     20 N         -76.0208   32.6372  -75.2816 N.am      10 UNK        -0.7319 
     21 O         -76.9291   32.3387  -73.2850 O.2       10 UNK        -0.5018 
     22 N         -74.8947   29.9916  -75.2295 N.am      10 UNK        -0.4509 
     23 C         -75.6387   29.5591  -76.2531 C.2       10 UNK         0.4899 
     24 O         -76.8631   29.4702  -76.2148 O.2       10 UNK        -0.4839 
     25 CA        -74.9080   29.1938  -77.5554 C.3       9 UNK         0.0222 
     26 CB        -74.2006   30.4198  -78.1679 C.3       9 UNK        -0.1966 
     27 N         -74.0002   28.0454  -77.4588 N.am      9 UNK        -0.4218 
     28 C         -72.8654   27.9103  -76.7637 C.2       9 UNK         0.5020 
     29 O         -72.4446   28.7590  -75.9749 O.2       9 UNK        -0.5274 
     30 CA        -72.0330   26.6356  -77.0466 C.3       8 UNK         0.0270 
     31 CB        -70.7196   26.6113  -76.2411 C.3       8 UNK        -0.1976 
     32 N         -72.7102   25.3464  -76.8463 N.am      8 UNK        -0.4313 
     33 C         -73.7955   24.8588  -77.4600 C.2       8 UNK         0.5041 
     34 O         -74.4878   25.5062  -78.2457 O.2       8 UNK        -0.5577 
     35 CA        -74.2039   23.4058  -77.1509 C.3       7 UNK         0.0284 
     36 CB        -73.6189   22.4410  -78.1999 C.3       7 UNK        -0.1958 
     37 N         -73.9322   22.9383  -75.7816 N.am      7 UNK        -0.4454 
     38 C         -72.7576   22.7219  -75.1689 C.2       7 UNK         0.5089 
     39 O         -71.6706   22.9560  -75.6977 O.2       7 UNK        -0.5125 
     40 CA        -72.8009   22.2093  -73.7138 C.3       6 UNK         0.0408 
     41 CB        -71.5985   22.7122  -72.8939 C.3       6 UNK        -0.1791 
     42 N         -74.0316   22.6242  -73.0392 N.am      6 UNK        -0.4762 
     43 C         -75.1098   21.8609  -72.8084 C.2       6 UNK         0.5007 
     44 O         -75.1685   20.6581  -73.0644 O.2       6 UNK        -0.5032 
     45 CA        -76.3576   22.5896  -72.2520 C.3       5 UNK         0.0783 
     46 C46       -76.4783   22.4521  -70.7145 C.3       11 UNK        -0.0857 
     47 S47       -75.1535   23.2907  -69.7726 S.3       11 UNK        -0.2512 
     48 C48       -76.0742   24.5621  -68.8540 C.3       11 UNK         0.0225 
     49 N         -76.4322   23.9900  -72.6940 N.am      5 UNK        -0.4615 
     50 C         -76.5599   24.3615  -73.9739 C.2       4 UNK         0.5053 
     51 O         -76.7185   23.5601  -74.8976 O.2       4 UNK        -0.5105 
     52 CA        -76.3697   25.8547  -74.2739 C.3       4 UNK         0.0263 
     53 CB        -74.9124   26.2662  -74.0139 C.3       4 UNK        -0.1981 
     54 N         -76.7052   26.1604  -75.6640 N.am      4 UNK        -0.4224 
     55 C         -77.9497   26.3599  -76.1054 C.2       3 UNK         0.4895 
     56 O         -78.9528   26.3515  -75.3817 O.2       3 UNK        -0.5091 
     57 CA        -78.1038   26.6134  -77.6099 C.3       3 UNK         0.0250 
     58 CB        -78.3017   25.2955  -78.3753 C.3       3 UNK        -0.1996 
     59 N         -79.2780   27.4573  -77.7654 N.am      3 UNK        -0.4254 
     60 C         -79.3873   28.5575  -78.5179 C.2       2 UNK         0.5004 
     61 O         -78.5753   28.8930  -79.3804 O.2       2 UNK        -0.5226 
     62 CA        -80.6128   29.4460  -78.2279 C.3       2 UNK         0.0269 
     63 CB        -81.7847   29.0738  -79.1505 C.3       2 UNK        -0.1926 
     64 N         -81.0331   29.3128  -76.8276 N.am      2 UNK        -0.4687 
     65 C         -80.4445   29.9432  -75.7986 C.2       1 UNK         0.5165 
     66 O         -79.7083   30.9189  -75.9455 O.2       1 UNK        -0.5079 
     67 H67       -83.2703   25.7996  -75.2719 H         1 UNK         0.0900 
     68 H68       -83.0738   25.6664  -73.5219 H         1 UNK         0.0900 
     69 H69       -81.6741   25.4943  -74.5824 H         1 UNK         0.0900 
     70 H70       -80.3826   27.3060  -74.6308 H         1 UNK         0.2959 
     71 H71       -81.5033   29.9884  -73.9598 H         1 UNK         0.1079 
     72 H72       -79.1164   30.5624  -73.4450 H         1 UNK         0.0837 
     73 H73       -78.6208   28.9377  -73.8383 H         1 UNK         0.0837 
     74 H74       -79.2127   26.9067  -72.6606 H         1 UNK         0.0685 
     75 H75       -79.9630   26.7720  -71.0963 H         1 UNK         0.0685 
     76 H76       -78.3586   25.2570  -70.1840 H         1 UNK         0.1434 
     77 H77       -74.3791   26.6147  -69.3701 H         1 UNK         0.1329 
     78 H78       -77.0281   29.0507  -71.6906 H         1 UNK         0.1335 
     79 H79       -74.9513   29.9771  -70.3350 H         1 UNK         0.0680 
     80 H80       -73.7319   28.8239  -69.8937 H         1 UNK         0.0680 
     81 H81       -74.7086   31.3148  -72.0576 H         1 UNK         0.1032 
     82 H82       -73.4962   31.2765  -73.2939 H         1 UNK         0.1032 
     83 H83       -76.1864   29.8701  -73.6211 H         1 UNK         0.0461 
     84 H84       -76.5163   33.5080  -75.3885 H         1 UNK         0.3453 
     85 H85       -75.4117   32.3075  -76.0117 H         1 UNK         0.3453 
     86 H86       -73.8848   29.9270  -75.3146 H         1 UNK         0.2984 
     87 H87       -75.6775   28.8926  -78.2675 H         1 UNK         0.0554 
     88 H88       -73.7860   30.1856  -79.1483 H         1 UNK         0.0847 
     89 H89       -73.3856   30.7840  -77.5417 H         1 UNK         0.0847 
     90 H90       -74.9007   31.2450  -78.3044 H         1 UNK         0.0847 
     91 H91       -74.2664   27.2283  -78.0110 H         1 UNK         0.3141 
     92 H92       -71.7626   26.6850  -78.1031 H         1 UNK         0.0743 
     93 H93       -70.1328   27.5145  -76.4147 H         1 UNK         0.0784 
     94 H94       -70.9093   26.5452  -75.1688 H         1 UNK         0.0784 
     95 H95       -70.0936   25.7645  -76.5239 H         1 UNK         0.0784 
     96 H96       -72.2100   24.6770  -76.2670 H         1 UNK         0.3213 
     97 H97       -75.2899   23.3715  -77.2538 H         1 UNK         0.0855 
     98 H98       -72.5289   22.4247  -78.1790 H         1 UNK         0.0814 
     99 H99       -73.9175   22.7353  -79.2071 H         1 UNK         0.0814 
    100 H100      -73.9732   21.4223  -78.0428 H         1 UNK         0.0814 
    101 H101      -74.7713   22.7684  -75.2381 H         1 UNK         0.3105 
    102 H102      -72.7469   21.1199  -73.7582 H         1 UNK         0.0547 
    103 H103      -71.5549   23.8016  -72.8662 H         1 UNK         0.0837 
    104 H104      -71.6421   22.3522  -71.8659 H         1 UNK         0.0837 
    105 H105      -70.6575   22.3582  -73.3172 H         1 UNK         0.0837 
    106 H106      -74.0871   23.5971  -72.7741 H         1 UNK         0.3020 
    107 H107      -77.2188   22.0771  -72.6880 H         1 UNK         0.1245 
    108 H108      -76.4758   21.3977  -70.4315 H         1 UNK         0.0781 
    109 H109      -77.4499   22.8304  -70.3945 H         1 UNK         0.0781 
    110 H110      -77.0050   24.1461  -68.4654 H         1 UNK         0.0836 
    111 H111      -75.4893   24.8454  -67.9775 H         1 UNK         0.0836 
    112 H112      -76.2924   24.6912  -71.9785 H         1 UNK         0.3022 
    113 H113      -77.0195   26.4339  -73.6174 H         1 UNK         0.0747 
    114 H114      -74.6741   26.2193  -72.9507 H         1 UNK         0.0793 
    115 H115      -74.7302   27.2908  -74.3336 H         1 UNK         0.0793 
    116 H116      -74.2028   25.6249  -74.5337 H         1 UNK         0.0793 
    117 H117      -75.9522   26.1291  -76.3349 H         1 UNK         0.3047 
    118 H118      -77.2161   27.1274  -77.9824 H         1 UNK         0.0822 
    119 H119      -77.4258   24.6531  -78.2760 H         1 UNK         0.0807 
    120 H120      -78.4529   25.4763  -79.4396 H         1 UNK         0.0807 
    121 H121      -79.1621   24.7374  -78.0035 H         1 UNK         0.0807 
    122 H122      -79.9737   27.3024  -77.0495 H         1 UNK         0.2946 
    123 H123      -80.3287   30.4823  -78.4259 H         1 UNK         0.1144 
    124 H124      -82.1065   28.0420  -79.0033 H         1 UNK         0.0793 
    125 H125      -81.5026   29.1809  -80.1989 H         1 UNK         0.0793 
    126 H126      -82.6445   29.7218  -78.9793 H         1 UNK         0.0793 
    127 H127      -81.6830   28.5709  -76.6111 H         1 UNK         0.2896 
@<TRIPOS>BOND
     1    1    2 1    
     2    1   67 1    
     3    1   68 1    
     4    1   69 1    
     5    2    3 2    
     6    2    4 am   BACKBONE|DICT|INTERRES
     7    4    5 1    
     8    4   70 1    
     9    5    6 1    
    10    5   65 1    
    11    5   71 1    
    12    6    7 1    
    13    6   72 1    
    14    6   73 1    
    15    7    8 1    
    16    8    9 1    
    17    8   74 1    
    18    8   75 1    
    19    9   10 ar   
    20    9   14 ar   
    21   10   11 ar   
    22   10   76 1    
    23   11   12 ar   
    24   11   48 1    
    25   12   13 ar   
    26   12   77 1    
    27   13   14 ar   
    28   13   15 1    
    29   14   78 1    
    30   15   16 1    
    31   15   79 1    
    32   15   80 1    
    33   16   17 1    
    34   17   18 1    
    35   17   81 1    
    36   17   82 1    
    37   18   19 1    
    38   18   22 1    
    39   18   83 1    
    40   19   20 am   BACKBONE|DICT|INTERRES
    41   19   21 2    
    42   20   84 1    
    43   20   85 1    
    44   22   23 am   BACKBONE|DICT|INTERRES
    45   22   86 1    
    46   23   24 2    
    47   23   25 1    
    48   25   26 1    
    49   25   27 1    
    50   25   87 1    
    51   26   88 1    
    52   26   89 1    
    53   26   90 1    
    54   27   28 am   BACKBONE|DICT|INTERRES
    55   27   91 1    
    56   28   29 2    
    57   28   30 1    
    58   30   31 1    
    59   30   32 1    
    60   30   92 1    
    61   31   93 1    
    62   31   94 1    
    63   31   95 1    
    64   32   33 am   BACKBONE|DICT|INTERRES
    65   32   96 1    
    66   33   34 2    
    67   33   35 1    
    68   35   36 1    
    69   35   37 1    
    70   35   97 1    
    71   36   98 1    
    72   36   99 1    
    73   36  100 1    
    74   37   38 am   BACKBONE|DICT|INTERRES
    75   37  101 1    
    76   38   39 2    
    77   38   40 1    
    78   40   41 1    
    79   40   42 1    
    80   40  102 1    
    81   41  103 1    
    82   41  104 1    
    83   41  105 1    
    84   42   43 am   BACKBONE|DICT|INTERRES
    85   42  106 1    
    86   43   44 2    
    87   43   45 1    
    88   45   46 1    
    89   45   49 1    
    90   45  107 1    
    91   46   47 1    
    92   46  108 1    
    93   46  109 1    
    94   47   48 1    
    95   48  110 1    
    96   48  111 1    
    97   49   50 am   BACKBONE|DICT|INTERRES
    98   49  112 1    
    99   50   51 2    
   100   50   52 1    
   101   52   53 1    
   102   52   54 1    
   103   52  113 1    
   104   53  114 1    
   105   53  115 1    
   106   53  116 1    
   107   54   55 am   BACKBONE|DICT|INTERRES
   108   54  117 1    
   109   55   56 2    
   110   55   57 1    
   111   57   58 1    
   112   57   59 1    
   113   57  118 1    
   114   58  119 1    
   115   58  120 1    
   116   58  121 1    
   117   59   60 am   BACKBONE|DICT|INTERRES
   118   59  122 1    
   119   60   61 2    
   120   60   62 1    
   121   62   63 1    
   122   62   64 1    
   123   62  123 1    
   124   63  124 1    
   125   63  125 1    
   126   63  126 1    
   127   64   65 am   BACKBONE|DICT|INTERRES
   128   64  127 1    
   129   65   66 2    
@<TRIPOS>SUBSTRUCTURE
     1 UNK         1 GROUP             0       ****    0 ROOT    
