@<TRIPOS>MOLECULE
3R135
127   129    1
SMALL
USER_CHARGES


@<TRIPOS>ATOM
      1 CA        -82.9158   29.5527  -76.6143 C.3       0 UNK        -0.1998 
      2 C         -81.7800   28.8962  -75.8444 C.2       0 UNK         0.4909 
      3 O         -80.6169   29.0971  -76.1890 O.2       0 UNK        -0.5240 
      4 N         -82.1130   28.1234  -74.8014 N.am      1 UNK        -0.4739 
      5 CA        -81.1728   27.3599  -73.9761 C.3       1 UNK         0.0864 
      6 C6        -81.8360   26.9392  -72.6379 C.3       11 UNK        -0.0881 
      7 S7        -80.7325   26.0700  -71.4693 S.3       11 UNK        -0.2682 
      8 C8        -80.4212   27.3260  -70.1869 C.3       11 UNK         0.0289 
      9 C9        -79.1562   28.1260  -70.4650 C.ar      11 UNK        -0.0687 
     10 C10       -79.1950   29.2479  -71.2981 C.ar      11 UNK        -0.0823 
     11 C11       -78.0379   29.9989  -71.5272 C.ar      11 UNK        -0.0830 
     12 C12       -76.8410   29.6257  -70.9088 C.ar      11 UNK        -0.1021 
     13 C13       -76.7809   28.4955  -70.0906 C.ar      11 UNK        -0.0753 
     14 C14       -77.9471   27.7555  -69.8652 C.ar      11 UNK        -0.0933 
     15 C15       -75.4632   28.0755  -69.4479 C.3       11 UNK         0.0166 
     16 S16       -74.2242   27.5396  -70.6792 S.3       11 UNK        -0.2615 
     17 C17       -73.1302   29.0020  -70.7322 C.3       11 UNK        -0.0865 
     18 CA        -71.9419   28.8918  -71.7250 C.3       10 UNK         0.0862 
     19 C         -70.8543   27.8650  -71.2863 C.2       10 UNK         0.5551 
     20 N         -70.3151   27.0381  -72.1754 N.am      10 UNK        -0.7319 
     21 O         -70.4729   27.8324  -70.1187 O.2       10 UNK        -0.5018 
     22 N         -72.4052   28.7295  -73.1120 N.am      10 UNK        -0.4509 
     23 C         -71.8257   29.2890  -74.1807 C.2       10 UNK         0.4899 
     24 O         -70.8769   30.0728  -74.1163 O.2       10 UNK        -0.4839 
     25 CA        -72.4021   28.8819  -75.5494 C.3       9 UNK         0.0222 
     26 CB        -71.6042   29.4605  -76.7367 C.3       9 UNK        -0.1966 
     27 N         -72.5526   27.4292  -75.6958 N.am      9 UNK        -0.4218 
     28 C         -71.5977   26.4914  -75.6093 C.2       9 UNK         0.5020 
     29 O         -70.4316   26.7221  -75.2863 O.2       9 UNK        -0.5274 
     30 CA        -72.0089   25.0403  -75.9245 C.3       8 UNK         0.0270 
     31 CB        -72.3031   24.2795  -74.6221 C.3       8 UNK        -0.1976 
     32 N         -73.1559   24.9165  -76.8359 N.am      8 UNK        -0.4313 
     33 C         -73.1600   25.3134  -78.1165 C.2       8 UNK         0.5041 
     34 O         -72.1891   25.8293  -78.6720 O.2       8 UNK        -0.5577 
     35 CA        -74.4418   25.0886  -78.9286 C.3       7 UNK         0.0284 
     36 CB        -74.7439   23.5901  -79.1257 C.3       7 UNK        -0.1958 
     37 N         -75.6065   25.8014  -78.3843 N.am      7 UNK        -0.4454 
     38 C         -76.6208   26.2264  -79.1584 C.2       7 UNK         0.5089 
     39 O         -76.6471   26.0584  -80.3791 O.2       7 UNK        -0.5125 
     40 CA        -77.8296   26.9377  -78.5146 C.3       6 UNK         0.0408 
     41 CB        -79.0556   26.0135  -78.5136 C.3       6 UNK        -0.1791 
     42 N         -77.6114   27.4276  -77.1562 N.am      6 UNK        -0.4762 
     43 C         -76.8571   28.4871  -76.8365 C.2       6 UNK         0.5007 
     44 O         -76.2668   29.1774  -77.6684 O.2       6 UNK        -0.5032 
     45 CA        -76.6981   28.8163  -75.3334 C.3       5 UNK         0.0783 
     46 C46       -77.6771   29.9430  -74.9071 C.3       11 UNK        -0.0857 
     47 S47       -76.8855   31.1417  -73.7874 S.3       11 UNK        -0.2512 
     48 C48       -78.0804   31.2338  -72.4154 C.3       11 UNK         0.0225 
     49 N         -76.7906   27.6321  -74.4619 N.am      5 UNK        -0.4615 
     50 C         -76.0300   26.5352  -74.5861 C.2       4 UNK         0.5053 
     51 O         -75.1313   26.4514  -75.4200 O.2       4 UNK        -0.5105 
     52 CA        -76.3161   25.3283  -73.6750 C.3       4 UNK         0.0263 
     53 CB        -77.1278   25.6837  -72.4245 C.3       4 UNK        -0.1981 
     54 N         -77.0280   24.2784  -74.3977 N.am      4 UNK        -0.4224 
     55 C         -76.5237   23.4566  -75.3241 C.2       3 UNK         0.4895 
     56 O         -75.3423   23.4615  -75.6677 O.2       3 UNK        -0.5091 
     57 CA        -77.4877   22.4570  -75.9989 C.3       3 UNK         0.0250 
     58 CB        -77.4682   21.0981  -75.2727 C.3       3 UNK        -0.1996 
     59 N         -78.8631   22.9480  -76.1963 N.am      3 UNK        -0.4254 
     60 C         -79.7838   23.2635  -75.2735 C.2       2 UNK         0.5004 
     61 O         -79.6363   23.0955  -74.0615 O.2       2 UNK        -0.5226 
     62 CA        -81.0671   23.9401  -75.7902 C.3       2 UNK         0.0269 
     63 CB        -82.2503   22.9606  -75.7368 C.3       2 UNK        -0.1926 
     64 N         -81.4107   25.1540  -75.0376 N.am      2 UNK        -0.4687 
     65 C         -80.5879   26.1869  -74.7905 C.2       1 UNK         0.5165 
     66 O         -79.4305   26.2593  -75.2068 O.2       1 UNK        -0.5079 
     67 H67       -82.8960   29.2318  -77.6554 H         1 UNK         0.0900 
     68 H68       -83.8914   29.2997  -76.1995 H         1 UNK         0.0900 
     69 H69       -82.8073   30.6366  -76.5897 H         1 UNK         0.0900 
     70 H70       -83.0909   28.0021  -74.5791 H         1 UNK         0.2959 
     71 H71       -80.3364   28.0178  -73.7344 H         1 UNK         0.1079 
     72 H72       -82.2453   27.8225  -72.1462 H         1 UNK         0.0837 
     73 H73       -82.6957   26.2928  -72.8215 H         1 UNK         0.0837 
     74 H74       -81.2780   27.9926  -70.0814 H         1 UNK         0.0685 
     75 H75       -80.3272   26.8153  -69.2273 H         1 UNK         0.0685 
     76 H76       -80.1295   29.5415  -71.7561 H         1 UNK         0.1434 
     77 H77       -75.9513   30.2132  -71.0805 H         1 UNK         0.1329 
     78 H78       -77.9138   26.8828  -69.2273 H         1 UNK         0.1335 
     79 H79       -75.6280   27.2503  -68.7535 H         1 UNK         0.0680 
     80 H80       -75.0734   28.8990  -68.8481 H         1 UNK         0.0680 
     81 H81       -73.7274   29.8745  -70.9958 H         1 UNK         0.1032 
     82 H82       -72.7608   29.1985  -69.7239 H         1 UNK         0.1032 
     83 H83       -71.4296   29.8537  -71.6619 H         1 UNK         0.0461 
     84 H84       -69.6073   26.3889  -71.8714 H         1 UNK         0.3453 
     85 H85       -70.5599   27.0910  -73.1553 H         1 UNK         0.3453 
     86 H86       -73.1602   28.0732  -73.2466 H         1 UNK         0.2984 
     87 H87       -73.4055   29.3035  -75.5975 H         1 UNK         0.0554 
     88 H88       -71.5765   30.5501  -76.6969 H         1 UNK         0.0847 
     89 H89       -72.0557   29.1825  -77.6892 H         1 UNK         0.0847 
     90 H90       -70.5721   29.1080  -76.7408 H         1 UNK         0.0847 
     91 H91       -73.5027   27.0914  -75.8461 H         1 UNK         0.3141 
     92 H92       -71.1555   24.5625  -76.4099 H         1 UNK         0.0743 
     93 H93       -73.1451   24.7163  -74.0861 H         1 UNK         0.0784 
     94 H94       -72.5366   23.2326  -74.8166 H         1 UNK         0.0784 
     95 H95       -71.4427   24.3023  -73.9517 H         1 UNK         0.0784 
     96 H96       -73.9987   24.4985  -76.4414 H         1 UNK         0.3213 
     97 H97       -74.2260   25.5011  -79.9172 H         1 UNK         0.0855 
     98 H98       -75.0242   23.1010  -78.1950 H         1 UNK         0.0814 
     99 H99       -73.8711   23.0658  -79.5171 H         1 UNK         0.0814 
    100 H100      -75.5547   23.4386  -79.8382 H         1 UNK         0.0814 
    101 H101      -75.6031   26.0104  -77.3902 H         1 UNK         0.3105 
    102 H102      -78.0654   27.7990  -79.1431 H         1 UNK         0.0547 
    103 H103      -79.2972   25.6773  -79.5228 H         1 UNK         0.0837 
    104 H104      -78.8771   25.1288  -77.9062 H         1 UNK         0.0837 
    105 H105      -79.9363   26.5223  -78.1204 H         1 UNK         0.0837 
    106 H106      -78.1106   26.9494  -76.4086 H         1 UNK         0.3020 
    107 H107      -75.6774   29.1878  -75.2369 H         1 UNK         0.1245 
    108 H108      -78.5738   29.5260  -74.4480 H         1 UNK         0.0781 
    109 H109      -78.0350   30.5210  -75.7621 H         1 UNK         0.0781 
    110 H110      -79.0807   31.4001  -72.8186 H         1 UNK         0.0836 
    111 H111      -77.8467   32.1084  -71.8068 H         1 UNK         0.0836 
    112 H112      -77.5229   27.6371  -73.7682 H         1 UNK         0.3022 
    113 H113      -75.3541   24.9320  -73.3475 H         1 UNK         0.0747 
    114 H114      -76.6198   26.4573  -71.8565 H         1 UNK         0.0793 
    115 H115      -78.1239   26.0474  -72.6717 H         1 UNK         0.0793 
    116 H116      -77.2427   24.8232  -71.7654 H         1 UNK         0.0793 
    117 H117      -78.0141   24.1705  -74.1808 H         1 UNK         0.3047 
    118 H118      -77.0948   22.2914  -77.0032 H         1 UNK         0.0822 
    119 H119      -76.4559   20.6932  -75.2369 H         1 UNK         0.0807 
    120 H120      -78.0924   20.3655  -75.7841 H         1 UNK         0.0807 
    121 H121      -77.8186   21.1784  -74.2434 H         1 UNK         0.0807 
    122 H122      -79.1012   23.1212  -77.1626 H         1 UNK         0.2946 
    123 H123      -80.9173   24.2396  -76.8289 H         1 UNK         0.1144 
    124 H124      -82.0345   22.0550  -76.3057 H         1 UNK         0.0793 
    125 H125      -83.1524   23.4009  -76.1621 H         1 UNK         0.0793 
    126 H126      -82.4741   22.6563  -74.7133 H         1 UNK         0.0793 
    127 H127      -82.3419   25.1860  -74.6512 H         1 UNK         0.2896 
@<TRIPOS>BOND
     1    1    2 1    
     2    1   67 1    
     3    1   68 1    
     4    1   69 1    
     5    2    3 2    
     6    2    4 am   BACKBONE|DICT|INTERRES
     7    4    5 1    
     8    4   70 1    
     9    5    6 1    
    10    5   65 1    
    11    5   71 1    
    12    6    7 1    
    13    6   72 1    
    14    6   73 1    
    15    7    8 1    
    16    8    9 1    
    17    8   74 1    
    18    8   75 1    
    19    9   10 ar   
    20    9   14 ar   
    21   10   11 ar   
    22   10   76 1    
    23   11   12 ar   
    24   11   48 1    
    25   12   13 ar   
    26   12   77 1    
    27   13   14 ar   
    28   13   15 1    
    29   14   78 1    
    30   15   16 1    
    31   15   79 1    
    32   15   80 1    
    33   16   17 1    
    34   17   18 1    
    35   17   81 1    
    36   17   82 1    
    37   18   19 1    
    38   18   22 1    
    39   18   83 1    
    40   19   20 am   BACKBONE|DICT|INTERRES
    41   19   21 2    
    42   20   84 1    
    43   20   85 1    
    44   22   23 am   BACKBONE|DICT|INTERRES
    45   22   86 1    
    46   23   24 2    
    47   23   25 1    
    48   25   26 1    
    49   25   27 1    
    50   25   87 1    
    51   26   88 1    
    52   26   89 1    
    53   26   90 1    
    54   27   28 am   BACKBONE|DICT|INTERRES
    55   27   91 1    
    56   28   29 2    
    57   28   30 1    
    58   30   31 1    
    59   30   32 1    
    60   30   92 1    
    61   31   93 1    
    62   31   94 1    
    63   31   95 1    
    64   32   33 am   BACKBONE|DICT|INTERRES
    65   32   96 1    
    66   33   34 2    
    67   33   35 1    
    68   35   36 1    
    69   35   37 1    
    70   35   97 1    
    71   36   98 1    
    72   36   99 1    
    73   36  100 1    
    74   37   38 am   BACKBONE|DICT|INTERRES
    75   37  101 1    
    76   38   39 2    
    77   38   40 1    
    78   40   41 1    
    79   40   42 1    
    80   40  102 1    
    81   41  103 1    
    82   41  104 1    
    83   41  105 1    
    84   42   43 am   BACKBONE|DICT|INTERRES
    85   42  106 1    
    86   43   44 2    
    87   43   45 1    
    88   45   46 1    
    89   45   49 1    
    90   45  107 1    
    91   46   47 1    
    92   46  108 1    
    93   46  109 1    
    94   47   48 1    
    95   48  110 1    
    96   48  111 1    
    97   49   50 am   BACKBONE|DICT|INTERRES
    98   49  112 1    
    99   50   51 2    
   100   50   52 1    
   101   52   53 1    
   102   52   54 1    
   103   52  113 1    
   104   53  114 1    
   105   53  115 1    
   106   53  116 1    
   107   54   55 am   BACKBONE|DICT|INTERRES
   108   54  117 1    
   109   55   56 2    
   110   55   57 1    
   111   57   58 1    
   112   57   59 1    
   113   57  118 1    
   114   58  119 1    
   115   58  120 1    
   116   58  121 1    
   117   59   60 am   BACKBONE|DICT|INTERRES
   118   59  122 1    
   119   60   61 2    
   120   60   62 1    
   121   62   63 1    
   122   62   64 1    
   123   62  123 1    
   124   63  124 1    
   125   63  125 1    
   126   63  126 1    
   127   64   65 am   BACKBONE|DICT|INTERRES
   128   64  127 1    
   129   65   66 2    
@<TRIPOS>SUBSTRUCTURE
     1 UNK         1 GROUP             0       ****    0 ROOT    
