@<TRIPOS>MOLECULE
3R135
127   129    1
SMALL
USER_CHARGES


@<TRIPOS>ATOM
      1 CA        -82.0194   29.7972  -76.4539 C.3       0 UNK        -0.1998 
      2 C         -81.1949   29.1263  -75.3660 C.2       0 UNK         0.4909 
      3 O         -79.9771   29.0234  -75.5011 O.2       0 UNK        -0.5240 
      4 N         -81.8516   28.6717  -74.2915 N.am      1 UNK        -0.4739 
      5 CA        -81.2143   28.0021  -73.1467 C.3       1 UNK         0.0864 
      6 C6        -81.9088   28.3717  -71.8108 C.3       11 UNK        -0.0881 
      7 S7        -81.8079   30.1672  -71.4801 S.3       11 UNK        -0.2682 
      8 C8        -80.4124   30.2806  -70.3104 C.3       11 UNK         0.0289 
      9 C9        -79.1545   29.5990  -70.8334 C.ar      11 UNK        -0.0687 
     10 C10       -78.7259   28.3961  -70.2658 C.ar      11 UNK        -0.0823 
     11 C11       -77.5941   27.7348  -70.7502 C.ar      11 UNK        -0.0830 
     12 C12       -76.8805   28.3035  -71.8139 C.ar      11 UNK        -0.1021 
     13 C13       -77.2966   29.5064  -72.3914 C.ar      11 UNK        -0.0753 
     14 C14       -78.4308   30.1544  -71.8926 C.ar      11 UNK        -0.0933 
     15 C15       -76.5354   30.0939  -73.5707 C.3       11 UNK         0.0166 
     16 S16       -75.4808   31.4890  -73.0677 S.3       11 UNK        -0.2615 
     17 C17       -74.1252   30.6417  -72.1834 C.3       11 UNK        -0.0865 
     18 CA        -72.7516   30.8567  -72.8671 C.3       10 UNK         0.0862 
     19 C         -71.6082   30.2737  -71.9956 C.2       10 UNK         0.5551 
     20 N         -70.8820   31.1166  -71.2745 N.am      10 UNK        -0.7319 
     21 O         -71.4094   29.0624  -71.9328 O.2       10 UNK        -0.5018 
     22 N         -72.7253   30.2938  -74.2233 N.am      10 UNK        -0.4509 
     23 C         -71.8439   30.6362  -75.1702 C.2       10 UNK         0.4899 
     24 O         -71.0032   31.5276  -75.0364 O.2       10 UNK        -0.4839 
     25 CA        -71.9297   29.8387  -76.4858 C.3       9 UNK         0.0222 
     26 CB        -70.8217   30.2065  -77.4960 C.3       9 UNK        -0.1966 
     27 N         -71.9739   28.3892  -76.2579 N.am      9 UNK        -0.4218 
     28 C         -71.0421   27.6300  -75.6539 C.2       9 UNK         0.5020 
     29 O         -69.9674   28.0638  -75.2364 O.2       9 UNK        -0.5274 
     30 CA        -71.3449   26.1294  -75.4735 C.3       8 UNK         0.0270 
     31 CB        -71.5844   25.8037  -73.9891 C.3       8 UNK        -0.1976 
     32 N         -72.4909   25.6739  -76.2663 N.am      8 UNK        -0.4313 
     33 C         -72.4339   25.4086  -77.5809 C.2       8 UNK         0.5041 
     34 O         -71.3887   25.4413  -78.2319 O.2       8 UNK        -0.5577 
     35 CA        -73.7474   25.0662  -78.3129 C.3       7 UNK         0.0284 
     36 CB        -73.8495   23.5486  -78.5378 C.3       7 UNK        -0.1958 
     37 N         -74.9678   25.5325  -77.6483 N.am      7 UNK        -0.4454 
     38 C         -75.2602   26.8052  -77.3413 C.2       7 UNK         0.5089 
     39 O         -74.5345   27.7623  -77.6106 O.2       7 UNK        -0.5125 
     40 CA        -76.5408   27.0342  -76.5203 C.3       6 UNK         0.0408 
     41 CB        -77.7571   27.1265  -77.4522 C.3       6 UNK        -0.1791 
     42 N         -76.7650   25.9930  -75.5099 N.am      6 UNK        -0.4762 
     43 C         -75.9000   25.6630  -74.5369 C.2       6 UNK         0.5007 
     44 O         -74.8249   26.2380  -74.3684 O.2       6 UNK        -0.5032 
     45 CA        -76.2530   24.4524  -73.6536 C.3       5 UNK         0.0783 
     46 C46       -77.0991   24.8474  -72.4201 C.3       11 UNK        -0.0857 
     47 S47       -76.0409   25.3638  -71.0278 S.3       11 UNK        -0.2512 
     48 C48       -77.1839   26.4227  -70.0787 C.3       11 UNK         0.0225 
     49 N         -76.9007   23.4093  -74.4506 N.am      5 UNK        -0.4615 
     50 C         -76.2413   22.4138  -75.0585 C.2       4 UNK         0.5053 
     51 O         -75.0257   22.2420  -74.9680 O.2       4 UNK        -0.5105 
     52 CA        -77.0663   21.4408  -75.9194 C.3       4 UNK         0.0263 
     53 CB        -77.5124   20.2310  -75.0828 C.3       4 UNK        -0.1981 
     54 N         -78.2394   22.0550  -76.5446 N.am      4 UNK        -0.4224 
     55 C         -78.1898   23.0237  -77.4688 C.2       3 UNK         0.4895 
     56 O         -77.1452   23.5105  -77.9018 O.2       3 UNK        -0.5091 
     57 CA        -79.5390   23.5719  -77.9630 C.3       3 UNK         0.0250 
     58 CB        -80.0853   22.6975  -79.1031 C.3       3 UNK        -0.1996 
     59 N         -80.5688   23.7243  -76.9252 N.am      3 UNK        -0.4254 
     60 C         -80.4307   24.4002  -75.7747 C.2       2 UNK         0.5004 
     61 O         -79.3568   24.8519  -75.3724 O.2       2 UNK        -0.5226 
     62 CA        -81.7102   24.5896  -74.9430 C.3       2 UNK         0.0269 
     63 CB        -81.8624   23.4827  -73.8801 C.3       2 UNK        -0.1926 
     64 N         -81.7843   25.9451  -74.3769 N.am      2 UNK        -0.4687 
     65 C         -81.1173   26.4724  -73.3359 C.2       1 UNK         0.5165 
     66 O         -80.4467   25.8183  -72.5376 O.2       1 UNK        -0.5079 
     67 H67       -83.0807   29.8203  -76.2073 H         1 UNK         0.0900 
     68 H68       -81.6828   30.8234  -76.5985 H         1 UNK         0.0900 
     69 H69       -81.9009   29.2638  -77.3967 H         1 UNK         0.0900 
     70 H70       -82.8494   28.8132  -74.2177 H         1 UNK         0.2959 
     71 H71       -80.1777   28.3373  -73.0829 H         1 UNK         0.1079 
     72 H72       -82.9610   28.0827  -71.8344 H         1 UNK         0.0837 
     73 H73       -81.4685   27.8285  -70.9728 H         1 UNK         0.0837 
     74 H74       -80.1982   31.3325  -70.1167 H         1 UNK         0.0685 
     75 H75       -80.7171   29.8506  -69.3550 H         1 UNK         0.0685 
     76 H76       -79.2845   27.9643  -69.4463 H         1 UNK         0.1434 
     77 H77       -76.0010   27.8130  -72.2057 H         1 UNK         0.1329 
     78 H78       -78.7617   31.0809  -72.3418 H         1 UNK         0.1335 
     79 H79       -75.9244   29.3326  -74.0580 H         1 UNK         0.0680 
     80 H80       -77.2476   30.4393  -74.3219 H         1 UNK         0.0680 
     81 H81       -74.1078   31.0345  -71.1648 H         1 UNK         0.1032 
     82 H82       -74.3388   29.5764  -72.0873 H         1 UNK         0.1032 
     83 H83       -72.5961   31.9345  -72.9539 H         1 UNK         0.0461 
     84 H84       -71.0443   32.1110  -71.3150 H         1 UNK         0.3453 
     85 H85       -70.1462   30.7527  -70.6894 H         1 UNK         0.3453 
     86 H86       -73.3559   29.5270  -74.4008 H         1 UNK         0.2984 
     87 H87       -72.8856   30.1027  -76.9406 H         1 UNK         0.0554 
     88 H88       -70.9281   29.6434  -78.4231 H         1 UNK         0.0847 
     89 H89       -69.8256   30.0114  -77.0974 H         1 UNK         0.0847 
     90 H90       -70.8653   31.2654  -77.7536 H         1 UNK         0.0847 
     91 H91       -72.8186   27.9349  -76.5928 H         1 UNK         0.3141 
     92 H92       -70.4599   25.5767  -75.7963 H         1 UNK         0.0743 
     93 H93       -72.3770   26.4178  -73.5608 H         1 UNK         0.0784 
     94 H94       -71.8505   24.7566  -73.8444 H         1 UNK         0.0784 
     95 H95       -70.6848   25.9949  -73.4025 H         1 UNK         0.0784 
     96 H96       -73.3882   25.6569  -75.7927 H         1 UNK         0.3213 
     97 H97       -73.7045   25.5551  -79.2883 H         1 UNK         0.0855 
     98 H98       -73.9585   23.0090  -77.5960 H         1 UNK         0.0814 
     99 H99       -72.9581   23.1634  -79.0349 H         1 UNK         0.0814 
    100 H100      -74.7025   23.2974  -79.1684 H         1 UNK         0.0814 
    101 H101      -75.6638   24.8229  -77.4374 H         1 UNK         0.3105 
    102 H102      -76.4420   27.9835  -75.9916 H         1 UNK         0.0547 
    103 H103      -77.6911   28.0105  -78.0874 H         1 UNK         0.0837 
    104 H104      -77.8263   26.2606  -78.1091 H         1 UNK         0.0837 
    105 H105      -78.6885   27.1973  -76.8916 H         1 UNK         0.0837 
    106 H106      -77.6595   25.5065  -75.5487 H         1 UNK         0.3020 
    107 H107      -75.3031   24.0527  -73.2894 H         1 UNK         0.1245 
    108 H108      -77.6879   23.9972  -72.0716 H         1 UNK         0.0781 
    109 H109      -77.8221   25.6274  -72.6655 H         1 UNK         0.0781 
    110 H110      -76.7142   26.6603  -69.1234 H         1 UNK         0.0836 
    111 H111      -78.0748   25.8361  -69.8474 H         1 UNK         0.0836 
    112 H112      -77.8902   23.5332  -74.6307 H         1 UNK         0.3022 
    113 H113      -76.4148   21.0822  -76.7194 H         1 UNK         0.0747 
    114 H114      -78.0207   19.4880  -75.6977 H         1 UNK         0.0793 
    115 H115      -76.6546   19.7367  -74.6241 H         1 UNK         0.0793 
    116 H116      -78.1887   20.5229  -74.2782 H         1 UNK         0.0793 
    117 H117      -79.1455   21.7283  -76.2421 H         1 UNK         0.3047 
    118 H118      -79.3531   24.5666  -78.3696 H         1 UNK         0.0822 
    119 H119      -80.9726   23.1412  -79.5550 H         1 UNK         0.0807 
    120 H120      -80.3486   21.6973  -78.7565 H         1 UNK         0.0807 
    121 H121      -79.3451   22.5829  -79.8966 H         1 UNK         0.0807 
    122 H122      -81.4822   23.3621  -77.1596 H         1 UNK         0.2946 
    123 H123      -82.5637   24.5148  -75.6192 H         1 UNK         0.1144 
    124 H124      -82.7280   23.6594  -73.2417 H         1 UNK         0.0793 
    125 H125      -80.9826   23.4030  -73.2409 H         1 UNK         0.0793 
    126 H126      -82.0007   22.5095  -74.3524 H         1 UNK         0.0793 
    127 H127      -82.2878   26.6095  -74.9476 H         1 UNK         0.2896 
@<TRIPOS>BOND
     1    1    2 1    
     2    1   67 1    
     3    1   68 1    
     4    1   69 1    
     5    2    3 2    
     6    2    4 am   BACKBONE|DICT|INTERRES
     7    4    5 1    
     8    4   70 1    
     9    5    6 1    
    10    5   65 1    
    11    5   71 1    
    12    6    7 1    
    13    6   72 1    
    14    6   73 1    
    15    7    8 1    
    16    8    9 1    
    17    8   74 1    
    18    8   75 1    
    19    9   10 ar   
    20    9   14 ar   
    21   10   11 ar   
    22   10   76 1    
    23   11   12 ar   
    24   11   48 1    
    25   12   13 ar   
    26   12   77 1    
    27   13   14 ar   
    28   13   15 1    
    29   14   78 1    
    30   15   16 1    
    31   15   79 1    
    32   15   80 1    
    33   16   17 1    
    34   17   18 1    
    35   17   81 1    
    36   17   82 1    
    37   18   19 1    
    38   18   22 1    
    39   18   83 1    
    40   19   20 am   BACKBONE|DICT|INTERRES
    41   19   21 2    
    42   20   84 1    
    43   20   85 1    
    44   22   23 am   BACKBONE|DICT|INTERRES
    45   22   86 1    
    46   23   24 2    
    47   23   25 1    
    48   25   26 1    
    49   25   27 1    
    50   25   87 1    
    51   26   88 1    
    52   26   89 1    
    53   26   90 1    
    54   27   28 am   BACKBONE|DICT|INTERRES
    55   27   91 1    
    56   28   29 2    
    57   28   30 1    
    58   30   31 1    
    59   30   32 1    
    60   30   92 1    
    61   31   93 1    
    62   31   94 1    
    63   31   95 1    
    64   32   33 am   BACKBONE|DICT|INTERRES
    65   32   96 1    
    66   33   34 2    
    67   33   35 1    
    68   35   36 1    
    69   35   37 1    
    70   35   97 1    
    71   36   98 1    
    72   36   99 1    
    73   36  100 1    
    74   37   38 am   BACKBONE|DICT|INTERRES
    75   37  101 1    
    76   38   39 2    
    77   38   40 1    
    78   40   41 1    
    79   40   42 1    
    80   40  102 1    
    81   41  103 1    
    82   41  104 1    
    83   41  105 1    
    84   42   43 am   BACKBONE|DICT|INTERRES
    85   42  106 1    
    86   43   44 2    
    87   43   45 1    
    88   45   46 1    
    89   45   49 1    
    90   45  107 1    
    91   46   47 1    
    92   46  108 1    
    93   46  109 1    
    94   47   48 1    
    95   48  110 1    
    96   48  111 1    
    97   49   50 am   BACKBONE|DICT|INTERRES
    98   49  112 1    
    99   50   51 2    
   100   50   52 1    
   101   52   53 1    
   102   52   54 1    
   103   52  113 1    
   104   53  114 1    
   105   53  115 1    
   106   53  116 1    
   107   54   55 am   BACKBONE|DICT|INTERRES
   108   54  117 1    
   109   55   56 2    
   110   55   57 1    
   111   57   58 1    
   112   57   59 1    
   113   57  118 1    
   114   58  119 1    
   115   58  120 1    
   116   58  121 1    
   117   59   60 am   BACKBONE|DICT|INTERRES
   118   59  122 1    
   119   60   61 2    
   120   60   62 1    
   121   62   63 1    
   122   62   64 1    
   123   62  123 1    
   124   63  124 1    
   125   63  125 1    
   126   63  126 1    
   127   64   65 am   BACKBONE|DICT|INTERRES
   128   64  127 1    
   129   65   66 2    
@<TRIPOS>SUBSTRUCTURE
     1 UNK         1 GROUP             0       ****    0 ROOT    
