@<TRIPOS>MOLECULE
3R135
127   129    1
SMALL
USER_CHARGES


@<TRIPOS>ATOM
      1 CA        -82.1493   22.5557  -71.7672 C.3       0 UNK        -0.1998 
      2 C         -81.3764   23.7364  -72.3328 C.2       0 UNK         0.4909 
      3 O         -80.3497   23.5360  -72.9849 O.2       0 UNK        -0.5240 
      4 N         -81.8706   24.9645  -72.1058 N.am      1 UNK        -0.4739 
      5 CA        -81.2611   26.2361  -72.5317 C.3       1 UNK         0.0864 
      6 C6        -79.9815   26.5720  -71.7201 C.3       11 UNK        -0.0881 
      7 S7        -80.3469   27.1893  -70.0424 S.3       11 UNK        -0.2682 
      8 C8        -80.3169   29.0047  -70.2662 C.3       11 UNK         0.0289 
      9 C9        -79.0689   29.5034  -70.9878 C.ar      11 UNK        -0.0687 
     10 C10       -79.1874   30.1838  -72.2043 C.ar      11 UNK        -0.0823 
     11 C11       -78.0503   30.5996  -72.9045 C.ar      11 UNK        -0.0830 
     12 C12       -76.7843   30.3237  -72.3773 C.ar      11 UNK        -0.1021 
     13 C13       -76.6518   29.6460  -71.1601 C.ar      11 UNK        -0.0753 
     14 C14       -77.7977   29.2514  -70.4637 C.ar      11 UNK        -0.0933 
     15 C15       -75.2736   29.2857  -70.6275 C.3       11 UNK         0.0166 
     16 S16       -74.2513   30.7552  -70.2930 S.3       11 UNK        -0.2615 
     17 C17       -72.6166   29.9705  -70.0668 C.3       11 UNK        -0.0865 
     18 CA        -71.7255   30.0396  -71.3371 C.3       10 UNK         0.0862 
     19 C         -70.3220   29.4244  -71.0595 C.2       10 UNK         0.5551 
     20 N         -69.9412   28.3153  -71.6835 N.am      10 UNK        -0.7319 
     21 O         -69.5638   29.9695  -70.2612 O.2       10 UNK        -0.5018 
     22 N         -72.4101   29.4789  -72.5118 N.am      10 UNK        -0.4509 
     23 C         -72.0874   29.7249  -73.7843 C.2       10 UNK         0.4899 
     24 O         -71.1844   30.4844  -74.1404 O.2       10 UNK        -0.4839 
     25 CA        -72.9173   28.9722  -74.8383 C.3       9 UNK         0.0222 
     26 CB        -73.4403   29.9410  -75.9117 C.3       9 UNK        -0.1966 
     27 N         -72.1608   27.8990  -75.4871 N.am      9 UNK        -0.4218 
     28 C         -71.5068   26.8981  -74.8829 C.2       9 UNK         0.5020 
     29 O         -71.4675   26.7351  -73.6607 O.2       9 UNK        -0.5274 
     30 CA        -70.7910   25.9020  -75.8157 C.3       8 UNK         0.0270 
     31 CB        -69.8241   24.9740  -75.0561 C.3       8 UNK        -0.1976 
     32 N         -71.7465   25.0812  -76.5626 N.am      8 UNK        -0.4313 
     33 C         -72.4808   25.4914  -77.6050 C.2       8 UNK         0.5041 
     34 O         -72.4013   26.6287  -78.0774 O.2       8 UNK        -0.5577 
     35 CA        -73.4531   24.4770  -78.2331 C.3       7 UNK         0.0284 
     36 CB        -73.6247   23.1764  -77.4198 C.3       7 UNK        -0.1958 
     37 N         -74.7604   25.1096  -78.3775 N.am      7 UNK        -0.4454 
     38 C         -75.3507   25.4411  -79.5329 C.2       7 UNK         0.5089 
     39 O         -74.8589   25.2192  -80.6405 O.2       7 UNK        -0.5125 
     40 CA        -76.7328   26.1220  -79.4575 C.3       6 UNK         0.0408 
     41 CB        -77.8291   25.1776  -79.9756 C.3       6 UNK        -0.1791 
     42 N         -77.0795   26.5625  -78.1032 N.am      6 UNK        -0.4762 
     43 C         -76.6405   27.6978  -77.5393 C.2       6 UNK         0.5007 
     44 O         -76.0055   28.5518  -78.1572 O.2       6 UNK        -0.5032 
     45 CA        -76.9207   27.8986  -76.0317 C.3       5 UNK         0.0783 
     46 C46       -78.0053   28.9771  -75.7718 C.3       11 UNK        -0.0857 
     47 S47       -77.2694   30.6396  -75.6095 S.3       11 UNK        -0.2512 
     48 C48       -78.2043   31.3620  -74.2179 C.3       11 UNK         0.0225 
     49 N         -77.2153   26.6387  -75.3383 N.am      5 UNK        -0.4615 
     50 C         -76.2936   25.7011  -75.0769 C.2       4 UNK         0.5053 
     51 O         -75.1173   25.7912  -75.4250 O.2       4 UNK        -0.5105 
     52 CA        -76.7602   24.4399  -74.3361 C.3       4 UNK         0.0263 
     53 CB        -76.8517   24.7133  -72.8281 C.3       4 UNK        -0.1981 
     54 N         -78.0333   23.9158  -74.8422 N.am      4 UNK        -0.4224 
     55 C         -78.1792   23.3725  -76.0612 C.2       3 UNK         0.4895 
     56 O         -77.2732   23.3027  -76.8912 O.2       3 UNK        -0.5091 
     57 CA        -79.5657   22.8237  -76.4246 C.3       3 UNK         0.0250 
     58 CB        -79.8249   21.4724  -75.7381 C.3       3 UNK        -0.1996 
     59 N         -80.6204   23.7737  -76.0761 N.am      3 UNK        -0.4254 
     60 C         -80.9768   24.8107  -76.8478 C.2       2 UNK         0.5004 
     61 O         -80.5061   25.0252  -77.9640 O.2       2 UNK        -0.5226 
     62 CA        -82.0281   25.7857  -76.2862 C.3       2 UNK         0.0269 
     63 CB        -83.4294   25.4186  -76.8006 C.3       2 UNK        -0.1926 
     64 N         -82.0564   25.8608  -74.8221 N.am      2 UNK        -0.4687 
     65 C         -81.0350   26.2799  -74.0612 C.2       1 UNK         0.5165 
     66 O         -79.9514   26.6347  -74.5276 O.2       1 UNK        -0.5079 
     67 H67       -82.4556   21.8886  -72.5723 H         1 UNK         0.0900 
     68 H68       -81.5189   21.9929  -71.0795 H         1 UNK         0.0900 
     69 H69       -83.0421   22.8723  -71.2284 H         1 UNK         0.0900 
     70 H70       -82.7216   25.0567  -71.5681 H         1 UNK         0.2959 
     71 H71       -81.9949   27.0204  -72.3388 H         1 UNK         0.1079 
     72 H72       -79.3688   25.6792  -71.6056 H         1 UNK         0.0837 
     73 H73       -79.3453   27.2907  -72.2343 H         1 UNK         0.0837 
     74 H74       -81.2182   29.3007  -70.8051 H         1 UNK         0.0685 
     75 H75       -80.3755   29.4816  -69.2870 H         1 UNK         0.0685 
     76 H76       -80.1693   30.3825  -72.6118 H         1 UNK         0.1434 
     77 H77       -75.8993   30.6316  -72.9176 H         1 UNK         0.1329 
     78 H78       -77.7052   28.7134  -69.5301 H         1 UNK         0.1335 
     79 H79       -74.7825   28.6458  -71.3602 H         1 UNK         0.0680 
     80 H80       -75.3518   28.6984  -69.7112 H         1 UNK         0.0680 
     81 H81       -72.1234   30.4799  -69.2364 H         1 UNK         0.1032 
     82 H82       -72.7472   28.9361  -69.7427 H         1 UNK         0.1032 
     83 H83       -71.5493   31.0963  -71.5478 H         1 UNK         0.0461 
     84 H84       -69.0297   27.9314  -71.4930 H         1 UNK         0.3453 
     85 H85       -70.5592   27.8473  -72.3401 H         1 UNK         0.3453 
     86 H86       -73.1254   28.7953  -72.3202 H         1 UNK         0.2984 
     87 H87       -73.7789   28.5111  -74.3510 H         1 UNK         0.0554 
     88 H88       -74.0598   30.7203  -75.4659 H         1 UNK         0.0847 
     89 H89       -74.0500   29.4257  -76.6517 H         1 UNK         0.0847 
     90 H90       -72.6261   30.4352  -76.4434 H         1 UNK         0.0847 
     91 H91       -72.1856   27.8712  -76.5023 H         1 UNK         0.3141 
     92 H92       -70.1998   26.4848  -76.5256 H         1 UNK         0.0743 
     93 H93       -69.0873   25.5529  -74.4973 H         1 UNK         0.0784 
     94 H94       -70.3487   24.3385  -74.3413 H         1 UNK         0.0784 
     95 H95       -69.2743   24.3275  -75.7403 H         1 UNK         0.0784 
     96 H96       -71.9038   24.1478  -76.2115 H         1 UNK         0.3213 
     97 H97       -73.0442   24.2139  -79.2107 H         1 UNK         0.0855 
     98 H98       -73.9849   23.3707  -76.4083 H         1 UNK         0.0814 
     99 H99       -72.6893   22.6201  -77.3488 H         1 UNK         0.0814 
    100 H100      -74.3482   22.5146  -77.8970 H         1 UNK         0.0814 
    101 H101      -75.2044   25.3845  -77.5093 H         1 UNK         0.3105 
    102 H102      -76.7029   26.9915  -80.1174 H         1 UNK         0.0547 
    103 H103      -78.7979   25.6760  -80.0065 H         1 UNK         0.0837 
    104 H104      -77.6094   24.8392  -80.9890 H         1 UNK         0.0837 
    105 H105      -77.9287   24.2900  -79.3502 H         1 UNK         0.0837 
    106 H106      -77.5955   25.9064  -77.5325 H         1 UNK         0.3020 
    107 H107      -75.9827   28.2561  -75.6014 H         1 UNK         0.1245 
    108 H108      -78.5333   28.7596  -74.8438 H         1 UNK         0.0781 
    109 H109      -78.7724   28.9858  -76.5486 H         1 UNK         0.0781 
    110 H110      -79.2541   31.4302  -74.5074 H         1 UNK         0.0836 
    111 H111      -77.8639   32.3870  -74.0656 H         1 UNK         0.0836 
    112 H112      -78.1763   26.5064  -75.0268 H         1 UNK         0.3022 
    113 H113      -76.0070   23.6639  -74.4895 H         1 UNK         0.0747 
    114 H114      -77.3221   23.8885  -72.2923 H         1 UNK         0.0793 
    115 H115      -75.8568   24.8541  -72.4039 H         1 UNK         0.0793 
    116 H116      -77.4134   25.6225  -72.6217 H         1 UNK         0.0793 
    117 H117      -78.8272   23.9201  -74.2070 H         1 UNK         0.3047 
    118 H118      -79.5839   22.6539  -77.5038 H         1 UNK         0.0822 
    119 H119      -79.0635   20.7434  -76.0186 H         1 UNK         0.0807 
    120 H120      -80.7906   21.0595  -76.0300 H         1 UNK         0.0807 
    121 H121      -79.8107   21.5531  -74.6511 H         1 UNK         0.0807 
    122 H122      -81.0100   23.7020  -75.1453 H         1 UNK         0.2946 
    123 H123      -81.7721   26.7788  -76.6630 H         1 UNK         0.1144 
    124 H124      -84.1715   26.1559  -76.4938 H         1 UNK         0.0793 
    125 H125      -83.7514   24.4429  -76.4345 H         1 UNK         0.0793 
    126 H126      -83.4468   25.3795  -77.8909 H         1 UNK         0.0793 
    127 H127      -82.9046   25.5583  -74.3645 H         1 UNK         0.2896 
@<TRIPOS>BOND
     1    1    2 1    
     2    1   67 1    
     3    1   68 1    
     4    1   69 1    
     5    2    3 2    
     6    2    4 am   BACKBONE|DICT|INTERRES
     7    4    5 1    
     8    4   70 1    
     9    5    6 1    
    10    5   65 1    
    11    5   71 1    
    12    6    7 1    
    13    6   72 1    
    14    6   73 1    
    15    7    8 1    
    16    8    9 1    
    17    8   74 1    
    18    8   75 1    
    19    9   10 ar   
    20    9   14 ar   
    21   10   11 ar   
    22   10   76 1    
    23   11   12 ar   
    24   11   48 1    
    25   12   13 ar   
    26   12   77 1    
    27   13   14 ar   
    28   13   15 1    
    29   14   78 1    
    30   15   16 1    
    31   15   79 1    
    32   15   80 1    
    33   16   17 1    
    34   17   18 1    
    35   17   81 1    
    36   17   82 1    
    37   18   19 1    
    38   18   22 1    
    39   18   83 1    
    40   19   20 am   BACKBONE|DICT|INTERRES
    41   19   21 2    
    42   20   84 1    
    43   20   85 1    
    44   22   23 am   BACKBONE|DICT|INTERRES
    45   22   86 1    
    46   23   24 2    
    47   23   25 1    
    48   25   26 1    
    49   25   27 1    
    50   25   87 1    
    51   26   88 1    
    52   26   89 1    
    53   26   90 1    
    54   27   28 am   BACKBONE|DICT|INTERRES
    55   27   91 1    
    56   28   29 2    
    57   28   30 1    
    58   30   31 1    
    59   30   32 1    
    60   30   92 1    
    61   31   93 1    
    62   31   94 1    
    63   31   95 1    
    64   32   33 am   BACKBONE|DICT|INTERRES
    65   32   96 1    
    66   33   34 2    
    67   33   35 1    
    68   35   36 1    
    69   35   37 1    
    70   35   97 1    
    71   36   98 1    
    72   36   99 1    
    73   36  100 1    
    74   37   38 am   BACKBONE|DICT|INTERRES
    75   37  101 1    
    76   38   39 2    
    77   38   40 1    
    78   40   41 1    
    79   40   42 1    
    80   40  102 1    
    81   41  103 1    
    82   41  104 1    
    83   41  105 1    
    84   42   43 am   BACKBONE|DICT|INTERRES
    85   42  106 1    
    86   43   44 2    
    87   43   45 1    
    88   45   46 1    
    89   45   49 1    
    90   45  107 1    
    91   46   47 1    
    92   46  108 1    
    93   46  109 1    
    94   47   48 1    
    95   48  110 1    
    96   48  111 1    
    97   49   50 am   BACKBONE|DICT|INTERRES
    98   49  112 1    
    99   50   51 2    
   100   50   52 1    
   101   52   53 1    
   102   52   54 1    
   103   52  113 1    
   104   53  114 1    
   105   53  115 1    
   106   53  116 1    
   107   54   55 am   BACKBONE|DICT|INTERRES
   108   54  117 1    
   109   55   56 2    
   110   55   57 1    
   111   57   58 1    
   112   57   59 1    
   113   57  118 1    
   114   58  119 1    
   115   58  120 1    
   116   58  121 1    
   117   59   60 am   BACKBONE|DICT|INTERRES
   118   59  122 1    
   119   60   61 2    
   120   60   62 1    
   121   62   63 1    
   122   62   64 1    
   123   62  123 1    
   124   63  124 1    
   125   63  125 1    
   126   63  126 1    
   127   64   65 am   BACKBONE|DICT|INTERRES
   128   64  127 1    
   129   65   66 2    
@<TRIPOS>SUBSTRUCTURE
     1 UNK         1 GROUP             0       ****    0 ROOT    
