@<TRIPOS>MOLECULE
3R135
127   129    1
SMALL
USER_CHARGES


@<TRIPOS>ATOM
      1 CA        -85.5788   28.9635  -73.4306 C.3       0 UNK        -0.1998 
      2 C         -84.2931   29.0194  -74.2419 C.2       0 UNK         0.4909 
      3 O         -84.3436   29.2328  -75.4534 O.2       0 UNK        -0.5240 
      4 N         -83.1439   28.8382  -73.5792 N.am      1 UNK        -0.4739 
      5 CA        -81.8064   28.7950  -74.1814 C.3       1 UNK         0.0864 
      6 C6        -80.6785   28.9278  -73.1225 C.3       11 UNK        -0.0881 
      7 S7        -80.9229   27.8934  -71.6318 S.3       11 UNK        -0.2682 
      8 C8        -79.9174   28.7914  -70.4095 C.3       11 UNK         0.0289 
      9 C9        -78.4346   28.6199  -70.6944 C.ar      11 UNK        -0.0687 
     10 C10       -77.8121   27.4043  -70.4035 C.ar      11 UNK        -0.0823 
     11 C11       -76.4637   27.1977  -70.7165 C.ar      11 UNK        -0.0830 
     12 C12       -75.7275   28.2487  -71.2723 C.ar      11 UNK        -0.1021 
     13 C13       -76.3305   29.4826  -71.5340 C.ar      11 UNK        -0.0753 
     14 C14       -77.6891   29.6593  -71.2569 C.ar      11 UNK        -0.0933 
     15 C15       -75.5052   30.6296  -72.0923 C.3       11 UNK         0.0166 
     16 S16       -75.2125   30.4417  -73.8763 S.3       11 UNK        -0.2615 
     17 C17       -74.2281   31.9469  -74.2065 C.3       11 UNK        -0.0865 
     18 CA        -72.6989   31.7087  -74.3300 C.3       10 UNK         0.0862 
     19 C         -72.0293   31.3851  -72.9643 C.2       10 UNK         0.5551 
     20 N         -71.8385   32.3904  -72.1205 N.am      10 UNK        -0.7319 
     21 O         -71.7136   30.2398  -72.6476 O.2       10 UNK        -0.5018 
     22 N         -72.3947   30.7188  -75.3691 N.am      10 UNK        -0.4509 
     23 C         -71.2132   30.5912  -75.9824 C.2       10 UNK         0.4899 
     24 O         -70.2565   31.3484  -75.8070 O.2       10 UNK        -0.4839 
     25 CA        -71.1084   29.4109  -76.9599 C.3       9 UNK         0.0222 
     26 CB        -69.7811   29.3741  -77.7487 C.3       9 UNK        -0.1966 
     27 N         -71.3781   28.1376  -76.2849 N.am      9 UNK        -0.4218 
     28 C         -70.6322   27.5194  -75.3527 C.2       9 UNK         0.5020 
     29 O         -69.5558   27.9495  -74.9357 O.2       9 UNK        -0.5274 
     30 CA        -71.1585   26.1835  -74.7804 C.3       8 UNK         0.0270 
     31 CB        -71.6260   26.3782  -73.3280 C.3       8 UNK        -0.1976 
     32 N         -72.2509   25.5854  -75.5556 N.am      8 UNK        -0.4313 
     33 C         -72.1498   25.1376  -76.8176 C.2       8 UNK         0.5041 
     34 O         -71.0752   25.0170  -77.4071 O.2       8 UNK        -0.5577 
     35 CA        -73.4535   24.8156  -77.5799 C.3       7 UNK         0.0284 
     36 CB        -73.6292   23.2935  -77.7101 C.3       7 UNK        -0.1958 
     37 N         -74.6728   25.3885  -76.9969 N.am      7 UNK        -0.4454 
     38 C         -74.8974   26.6790  -76.7044 C.2       7 UNK         0.5089 
     39 O         -74.1297   27.5926  -77.0099 O.2       7 UNK        -0.5125 
     40 CA        -76.1381   26.9948  -75.8473 C.3       6 UNK         0.0408 
     41 CB        -77.2879   27.5119  -76.7223 C.3       6 UNK        -0.1791 
     42 N         -76.6079   25.8671  -75.0323 N.am      6 UNK        -0.4762 
     43 C         -75.8893   25.2343  -74.0893 C.2       6 UNK         0.5007 
     44 O         -74.7197   25.5129  -73.8237 O.2       6 UNK        -0.5032 
     45 CA        -76.5720   24.0564  -73.3721 C.3       5 UNK         0.0783 
     46 C46       -77.5494   24.5405  -72.2696 C.3       11 UNK        -0.0857 
     47 S47       -76.8486   24.3882  -70.5908 S.3       11 UNK        -0.2512 
     48 C48       -75.7721   25.8608  -70.4556 C.3       11 UNK         0.0225 
     49 N         -77.2398   23.2039  -74.3558 N.am      5 UNK        -0.4615 
     50 C         -76.6727   22.1471  -74.9515 C.2       4 UNK         0.5053 
     51 O         -75.5435   21.7354  -74.6861 O.2       4 UNK        -0.5105 
     52 CA        -77.4959   21.4202  -76.0308 C.3       4 UNK         0.0263 
     53 CB        -78.2221   20.2086  -75.4246 C.3       4 UNK        -0.1981 
     54 N         -78.4726   22.2785  -76.7063 N.am      4 UNK        -0.4224 
     55 C         -78.1589   23.3224  -77.4858 C.2       3 UNK         0.4895 
     56 O         -77.0063   23.6716  -77.7361 O.2       3 UNK        -0.5091 
     57 CA        -79.3312   24.1427  -78.0465 C.3       3 UNK         0.0250 
     58 CB        -79.8388   23.5218  -79.3578 C.3       3 UNK        -0.1996 
     59 N         -80.4572   24.3209  -77.1210 N.am      3 UNK        -0.4254 
     60 C         -80.3855   24.8319  -75.8828 C.2       2 UNK         0.5004 
     61 O         -79.3308   25.0943  -75.2986 O.2       2 UNK        -0.5226 
     62 CA        -81.7249   25.0573  -75.1609 C.3       2 UNK         0.0269 
     63 CB        -81.9525   23.9535  -74.1156 C.3       2 UNK        -0.1926 
     64 N         -81.8066   26.3639  -74.5002 N.am      2 UNK        -0.4687 
     65 C         -81.6265   27.5580  -75.0852 C.2       1 UNK         0.5165 
     66 O         -81.3761   27.7113  -76.2820 O.2       1 UNK        -0.5079 
     67 H67       -86.1179   29.9066  -73.5162 H         1 UNK         0.0900 
     68 H68       -85.3867   28.7776  -72.3740 H         1 UNK         0.0900 
     69 H69       -86.2228   28.1674  -73.8031 H         1 UNK         0.0900 
     70 H70       -83.1647   28.6628  -72.5839 H         1 UNK         0.2959 
     71 H71       -81.7263   29.6621  -74.8415 H         1 UNK         0.1079 
     72 H72       -79.7003   28.7046  -73.5546 H         1 UNK         0.0837 
     73 H73       -80.6245   29.9698  -72.8036 H         1 UNK         0.0837 
     74 H74       -80.1419   28.4048  -69.4143 H         1 UNK         0.0685 
     75 H75       -80.1982   29.8457  -70.3989 H         1 UNK         0.0685 
     76 H76       -78.3966   26.6088  -69.9628 H         1 UNK         0.1434 
     77 H77       -74.6799   28.1102  -71.5052 H         1 UNK         0.1329 
     78 H78       -78.1645   30.6059  -71.4747 H         1 UNK         0.1335 
     79 H79       -76.0048   31.5817  -71.9066 H         1 UNK         0.0680 
     80 H80       -74.5500   30.6747  -71.5677 H         1 UNK         0.0680 
     81 H81       -74.4400   32.7051  -73.4505 H         1 UNK         0.1032 
     82 H82       -74.5951   32.3732  -75.1413 H         1 UNK         0.1032 
     83 H83       -72.2641   32.6529  -74.6653 H         1 UNK         0.0461 
     84 H84       -72.0913   33.3353  -72.3645 H         1 UNK         0.3453 
     85 H85       -71.4158   32.2020  -71.2251 H         1 UNK         0.3453 
     86 H86       -73.1127   30.0286  -75.5375 H         1 UNK         0.2984 
     87 H87       -71.9108   29.5401  -77.6880 H         1 UNK         0.0554 
     88 H88       -69.6595   30.2808  -78.3425 H         1 UNK         0.0847 
     89 H89       -69.7523   28.5291  -78.4366 H         1 UNK         0.0847 
     90 H90       -68.9136   29.3021  -77.0925 H         1 UNK         0.0847 
     91 H91       -72.2754   27.7210  -76.5217 H         1 UNK         0.3141 
     92 H92       -70.3249   25.4785  -74.7825 H         1 UNK         0.0743 
     93 H93       -70.8201   26.7701  -72.7059 H         1 UNK         0.0784 
     94 H94       -72.4558   27.0842  -73.2648 H         1 UNK         0.0784 
     95 H95       -71.9511   25.4374  -72.8833 H         1 UNK         0.0784 
     96 H96       -73.1693   25.6090  -75.1205 H         1 UNK         0.3213 
     97 H97       -73.3476   25.2373  -78.5812 H         1 UNK         0.0855 
     98 H98       -73.8101   22.8251  -76.7417 H         1 UNK         0.0814 
     99 H99       -72.7388   22.8295  -78.1367 H         1 UNK         0.0814 
    100 H100      -74.4638   23.0441  -78.3652 H         1 UNK         0.0814 
    101 H101      -75.4151   24.7312  -76.7848 H         1 UNK         0.3105 
    102 H102      -75.8570   27.7890  -75.1540 H         1 UNK         0.0547 
    103 H103      -76.9925   28.4155  -77.2570 H         1 UNK         0.0837 
    104 H104      -77.5842   26.7754  -77.4675 H         1 UNK         0.0837 
    105 H105      -78.1659   27.7597  -76.1251 H         1 UNK         0.0837 
    106 H106      -77.5745   25.5783  -75.1768 H         1 UNK         0.3020 
    107 H107      -75.7762   23.4745  -72.9005 H         1 UNK         0.1245 
    108 H108      -78.4492   23.9230  -72.2688 H         1 UNK         0.0781 
    109 H109      -77.9156   25.5535  -72.4476 H         1 UNK         0.0781 
    110 H110      -75.3465   25.8850  -69.4518 H         1 UNK         0.0836 
    111 H111      -74.9310   25.7338  -71.1385 H         1 UNK         0.0836 
    112 H112      -78.1472   23.5224  -74.6758 H         1 UNK         0.3022 
    113 H113      -76.7940   21.0577  -76.7850 H         1 UNK         0.0747 
    114 H114      -77.5162   19.5348  -74.9368 H         1 UNK         0.0793 
    115 H115      -78.7403   19.6314  -76.1907 H         1 UNK         0.0793 
    116 H116      -78.9554   20.5101  -74.6754 H         1 UNK         0.0793 
    117 H117      -79.4489   22.0717  -76.5531 H         1 UNK         0.3047 
    118 H118      -78.9488   25.1374  -78.2770 H         1 UNK         0.0822 
    119 H119      -80.5862   24.1561  -79.8351 H         1 UNK         0.0807 
    120 H120      -80.2848   22.5397  -79.1957 H         1 UNK         0.0807 
    121 H121      -79.0231   23.3954  -80.0715 H         1 UNK         0.0807 
    122 H122      -81.3710   24.1177  -77.5002 H         1 UNK         0.2946 
    123 H123      -82.5324   25.0170  -75.8949 H         1 UNK         0.1144 
    124 H124      -81.9222   22.9645  -74.5750 H         1 UNK         0.0793 
    125 H125      -82.9255   24.0553  -73.6347 H         1 UNK         0.0793 
    126 H126      -81.1890   23.9748  -73.3363 H         1 UNK         0.0793 
    127 H127      -81.9743   26.3571  -73.5040 H         1 UNK         0.2896 
@<TRIPOS>BOND
     1    1    2 1    
     2    1   67 1    
     3    1   68 1    
     4    1   69 1    
     5    2    3 2    
     6    2    4 am   BACKBONE|DICT|INTERRES
     7    4    5 1    
     8    4   70 1    
     9    5    6 1    
    10    5   65 1    
    11    5   71 1    
    12    6    7 1    
    13    6   72 1    
    14    6   73 1    
    15    7    8 1    
    16    8    9 1    
    17    8   74 1    
    18    8   75 1    
    19    9   10 ar   
    20    9   14 ar   
    21   10   11 ar   
    22   10   76 1    
    23   11   12 ar   
    24   11   48 1    
    25   12   13 ar   
    26   12   77 1    
    27   13   14 ar   
    28   13   15 1    
    29   14   78 1    
    30   15   16 1    
    31   15   79 1    
    32   15   80 1    
    33   16   17 1    
    34   17   18 1    
    35   17   81 1    
    36   17   82 1    
    37   18   19 1    
    38   18   22 1    
    39   18   83 1    
    40   19   20 am   BACKBONE|DICT|INTERRES
    41   19   21 2    
    42   20   84 1    
    43   20   85 1    
    44   22   23 am   BACKBONE|DICT|INTERRES
    45   22   86 1    
    46   23   24 2    
    47   23   25 1    
    48   25   26 1    
    49   25   27 1    
    50   25   87 1    
    51   26   88 1    
    52   26   89 1    
    53   26   90 1    
    54   27   28 am   BACKBONE|DICT|INTERRES
    55   27   91 1    
    56   28   29 2    
    57   28   30 1    
    58   30   31 1    
    59   30   32 1    
    60   30   92 1    
    61   31   93 1    
    62   31   94 1    
    63   31   95 1    
    64   32   33 am   BACKBONE|DICT|INTERRES
    65   32   96 1    
    66   33   34 2    
    67   33   35 1    
    68   35   36 1    
    69   35   37 1    
    70   35   97 1    
    71   36   98 1    
    72   36   99 1    
    73   36  100 1    
    74   37   38 am   BACKBONE|DICT|INTERRES
    75   37  101 1    
    76   38   39 2    
    77   38   40 1    
    78   40   41 1    
    79   40   42 1    
    80   40  102 1    
    81   41  103 1    
    82   41  104 1    
    83   41  105 1    
    84   42   43 am   BACKBONE|DICT|INTERRES
    85   42  106 1    
    86   43   44 2    
    87   43   45 1    
    88   45   46 1    
    89   45   49 1    
    90   45  107 1    
    91   46   47 1    
    92   46  108 1    
    93   46  109 1    
    94   47   48 1    
    95   48  110 1    
    96   48  111 1    
    97   49   50 am   BACKBONE|DICT|INTERRES
    98   49  112 1    
    99   50   51 2    
   100   50   52 1    
   101   52   53 1    
   102   52   54 1    
   103   52  113 1    
   104   53  114 1    
   105   53  115 1    
   106   53  116 1    
   107   54   55 am   BACKBONE|DICT|INTERRES
   108   54  117 1    
   109   55   56 2    
   110   55   57 1    
   111   57   58 1    
   112   57   59 1    
   113   57  118 1    
   114   58  119 1    
   115   58  120 1    
   116   58  121 1    
   117   59   60 am   BACKBONE|DICT|INTERRES
   118   59  122 1    
   119   60   61 2    
   120   60   62 1    
   121   62   63 1    
   122   62   64 1    
   123   62  123 1    
   124   63  124 1    
   125   63  125 1    
   126   63  126 1    
   127   64   65 am   BACKBONE|DICT|INTERRES
   128   64  127 1    
   129   65   66 2    
@<TRIPOS>SUBSTRUCTURE
     1 UNK         1 GROUP             0       ****    0 ROOT    
