@<TRIPOS>MOLECULE
3R135
127   129    1
SMALL
USER_CHARGES


@<TRIPOS>ATOM
      1 CA        -77.3244   26.9013  -72.3847 C.3       0 UNK        -0.1998 
      2 C         -78.4660   26.1997  -71.6673 C.2       0 UNK         0.4909 
      3 O         -78.2574   25.1423  -71.0711 O.2       0 UNK        -0.5240 
      4 N         -79.6724   26.7786  -71.7165 N.am      1 UNK        -0.4739 
      5 CA        -80.8979   26.2238  -71.1343 C.3       1 UNK         0.0864 
      6 C6        -82.0574   27.2485  -71.1423 C.3       11 UNK        -0.0881 
      7 S7        -81.7211   28.6567  -70.0346 S.3       11 UNK        -0.2682 
      8 C8        -81.7762   30.0684  -71.1837 C.3       11 UNK         0.0289 
      9 C9        -80.5540   30.1514  -72.0905 C.ar      11 UNK        -0.0687 
     10 C10       -80.7018   30.1302  -73.4798 C.ar      11 UNK        -0.0823 
     11 C11       -79.5984   30.3025  -74.3220 C.ar      11 UNK        -0.0830 
     12 C12       -78.3308   30.4813  -73.7500 C.ar      11 UNK        -0.1021 
     13 C13       -78.1593   30.4874  -72.3582 C.ar      11 UNK        -0.0753 
     14 C14       -79.2810   30.3216  -71.5408 C.ar      11 UNK        -0.0933 
     15 C15       -76.7967   30.6691  -71.6820 C.3       11 UNK         0.0166 
     16 S16       -75.4884   31.4247  -72.7079 S.3       11 UNK        -0.2615 
     17 C17       -74.8667   29.9866  -73.6442 C.3       11 UNK        -0.0865 
     18 CA        -73.4786   29.5117  -73.1419 C.3       10 UNK         0.0862 
     19 C         -73.5973   28.5604  -71.9208 C.2       10 UNK         0.5551 
     20 N         -73.4749   29.0842  -70.7093 N.am      10 UNK        -0.7319 
     21 O         -73.8426   27.3650  -72.0632 O.2       10 UNK        -0.5018 
     22 N         -72.7065   28.9038  -74.2323 N.am      10 UNK        -0.4509 
     23 C         -71.3735   28.7685  -74.2260 C.2       10 UNK         0.4899 
     24 O         -70.6500   29.1868  -73.3201 O.2       10 UNK        -0.4839 
     25 CA        -70.7431   28.0817  -75.4531 C.3       9 UNK         0.0222 
     26 CB        -69.2671   27.6820  -75.2389 C.3       9 UNK        -0.1966 
     27 N         -71.5353   26.9507  -75.9454 N.am      9 UNK        -0.4218 
     28 C         -71.8099   25.7998  -75.3087 C.2       9 UNK         0.5020 
     29 O         -71.3601   25.5063  -74.2004 O.2       9 UNK        -0.5274 
     30 CA        -72.7436   24.7981  -76.0186 C.3       8 UNK         0.0270 
     31 CB        -73.9574   24.4566  -75.1392 C.3       8 UNK        -0.1976 
     32 N         -73.2221   25.2962  -77.3098 N.am      8 UNK        -0.4313 
     33 C         -72.6095   25.1014  -78.4858 C.2       8 UNK         0.5041 
     34 O         -71.6318   24.3682  -78.6352 O.2       8 UNK        -0.5577 
     35 CA        -73.1460   25.8923  -79.6930 C.3       7 UNK         0.0284 
     36 CB        -74.0162   25.0024  -80.5945 C.3       7 UNK        -0.1958 
     37 N         -73.8943   27.0919  -79.2971 N.am      7 UNK        -0.4454 
     38 C         -73.3153   28.2033  -78.8167 C.2       7 UNK         0.5089 
     39 O         -72.0983   28.3288  -78.6861 O.2       7 UNK        -0.5125 
     40 CA        -74.2325   29.3455  -78.3460 C.3       6 UNK         0.0408 
     41 CB        -74.4816   30.3400  -79.4897 C.3       6 UNK        -0.1791 
     42 N         -75.5164   28.8905  -77.8097 N.am      6 UNK        -0.4762 
     43 C         -75.6755   28.1258  -76.7212 C.2       6 UNK         0.5007 
     44 O         -74.7297   27.7224  -76.0414 O.2       6 UNK        -0.5032 
     45 CA        -77.1167   27.7101  -76.3355 C.3       5 UNK         0.0783 
     46 C46       -78.2502   28.4009  -77.1461 C.3       11 UNK        -0.0857 
     47 S47       -78.3689   30.2061  -76.8973 S.3       11 UNK        -0.2512 
     48 C48       -79.8452   30.3766  -75.8318 C.3       11 UNK         0.0225 
     49 N         -77.2782   26.2505  -76.3683 N.am      5 UNK        -0.4615 
     50 C         -77.0327   25.4397  -77.4058 C.2       4 UNK         0.5053 
     51 O         -76.5035   25.8300  -78.4479 O.2       4 UNK        -0.5105 
     52 CA        -77.4767   23.9608  -77.2928 C.3       4 UNK         0.0263 
     53 CB        -76.7894   23.0704  -78.3461 C.3       4 UNK        -0.1981 
     54 N         -77.3197   23.3196  -75.9794 N.am      4 UNK        -0.4224 
     55 C         -77.9981   23.5958  -74.8589 C.2       3 UNK         0.4895 
     56 O         -78.7478   24.5667  -74.7341 O.2       3 UNK        -0.5091 
     57 CA        -77.7856   22.6274  -73.6829 C.3       3 UNK         0.0250 
     58 CB        -76.4577   22.9036  -72.9597 C.3       3 UNK        -0.1996 
     59 N         -78.8855   22.7395  -72.7248 N.am      3 UNK        -0.4254 
     60 C         -80.0618   22.1069  -72.8474 C.2       2 UNK         0.5004 
     61 O         -80.3010   21.2738  -73.7231 O.2       2 UNK        -0.5226 
     62 CA        -81.1614   22.4472  -71.8244 C.3       2 UNK         0.0269 
     63 CB        -81.1932   21.3996  -70.6997 C.3       2 UNK        -0.1926 
     64 N         -80.9968   23.7778  -71.2354 N.am      2 UNK        -0.4687 
     65 C         -81.2940   24.9238  -71.8624 C.2       1 UNK         0.5165 
     66 O         -81.8352   24.9815  -72.9683 O.2       1 UNK        -0.5079 
     67 H67       -77.6666   27.7934  -72.9051 H         1 UNK         0.0900 
     68 H68       -76.8703   26.2369  -73.1191 H         1 UNK         0.0900 
     69 H69       -76.5573   27.1935  -71.6679 H         1 UNK         0.0900 
     70 H70       -79.7871   27.6539  -72.2081 H         1 UNK         0.2959 
     71 H71       -80.6850   25.9742  -70.0922 H         1 UNK         0.1079 
     72 H72       -82.9833   26.7820  -70.7999 H         1 UNK         0.0837 
     73 H73       -82.2545   27.6031  -72.1560 H         1 UNK         0.0837 
     74 H74       -82.6985   30.0219  -71.7652 H         1 UNK         0.0685 
     75 H75       -81.8344   30.9870  -70.5985 H         1 UNK         0.0685 
     76 H76       -81.6885   30.0202  -73.9097 H         1 UNK         0.1434 
     77 H77       -77.4785   30.6402  -74.3910 H         1 UNK         0.1329 
     78 H78       -79.1683   30.3409  -70.4651 H         1 UNK         0.1335 
     79 H79       -76.9236   31.3085  -70.8070 H         1 UNK         0.0680 
     80 H80       -76.4520   29.7059  -71.3045 H         1 UNK         0.0680 
     81 H81       -74.7948   30.3133  -74.6829 H         1 UNK         0.1032 
     82 H82       -75.5928   29.1722  -73.6416 H         1 UNK         0.1032 
     83 H83       -72.9190   30.3960  -72.8279 H         1 UNK         0.0461 
     84 H84       -73.5598   28.4840  -69.9044 H         1 UNK         0.3453 
     85 H85       -73.2926   30.0679  -70.5858 H         1 UNK         0.3453 
     86 H86       -73.2485   28.4614  -74.9681 H         1 UNK         0.2984 
     87 H87       -70.7624   28.8260  -76.2504 H         1 UNK         0.0554 
     88 H88       -68.8497   27.2122  -76.1294 H         1 UNK         0.0847 
     89 H89       -69.1498   26.9882  -74.4061 H         1 UNK         0.0847 
     90 H90       -68.6540   28.5568  -75.0187 H         1 UNK         0.0847 
     91 H91       -71.9406   27.0885  -76.8626 H         1 UNK         0.3141 
     92 H92       -72.1715   23.8806  -76.1709 H         1 UNK         0.0743 
     93 H93       -74.5746   25.3312  -74.9323 H         1 UNK         0.0784 
     94 H94       -74.5823   23.7049  -75.6181 H         1 UNK         0.0784 
     95 H95       -73.6407   24.0506  -74.1776 H         1 UNK         0.0784 
     96 H96       -74.0069   25.9355  -77.2759 H         1 UNK         0.3213 
     97 H97       -72.2809   26.2112  -80.2791 H         1 UNK         0.0855 
     98 H98       -74.8855   24.6135  -80.0670 H         1 UNK         0.0814 
     99 H99       -73.4481   24.1441  -80.9560 H         1 UNK         0.0814 
    100 H100      -74.3701   25.5477  -81.4694 H         1 UNK         0.0814 
    101 H101      -74.9065   27.0217  -79.3013 H         1 UNK         0.3105 
    102 H102      -73.7114   29.8735  -77.5445 H         1 UNK         0.0547 
    103 H103      -73.5397   30.7188  -79.8893 H         1 UNK         0.0837 
    104 H104      -75.0241   29.8791  -80.3162 H         1 UNK         0.0837 
    105 H105      -75.0560   31.2017  -79.1489 H         1 UNK         0.0837 
    106 H106      -76.3464   29.1923  -78.3012 H         1 UNK         0.3020 
    107 H107      -77.2364   28.0017  -75.2922 H         1 UNK         0.1245 
    108 H108      -78.1425   28.2024  -78.2141 H         1 UNK         0.0781 
    109 H109      -79.2076   27.9543  -76.8739 H         1 UNK         0.0781 
    110 H110      -80.2882   31.3508  -76.0426 H         1 UNK         0.0836 
    111 H111      -80.5938   29.6397  -76.1267 H         1 UNK         0.0836 
    112 H112      -77.7559   25.8292  -75.5743 H         1 UNK         0.3022 
    113 H113      -78.5452   23.9604  -77.5175 H         1 UNK         0.0747 
    114 H114      -76.9805   23.4338  -79.3568 H         1 UNK         0.0793 
    115 H115      -75.7079   23.0444  -78.2049 H         1 UNK         0.0793 
    116 H116      -77.1594   22.0457  -78.3062 H         1 UNK         0.0793 
    117 H117      -76.7010   22.5218  -75.9636 H         1 UNK         0.3047 
    118 H118      -77.7585   21.6072  -74.0722 H         1 UNK         0.0822 
    119 H119      -76.3602   22.2909  -72.0632 H         1 UNK         0.0807 
    120 H120      -76.3610   23.9467  -72.6600 H         1 UNK         0.0807 
    121 H121      -75.6092   22.6647  -73.5996 H         1 UNK         0.0807 
    122 H122      -78.7906   23.4655  -72.0209 H         1 UNK         0.2946 
    123 H123      -82.1177   22.4139  -72.3519 H         1 UNK         0.1144 
    124 H124      -80.2624   21.3884  -70.1314 H         1 UNK         0.0793 
    125 H125      -81.3398   20.3972  -71.1044 H         1 UNK         0.0793 
    126 H126      -82.0106   21.5888  -70.0036 H         1 UNK         0.0793 
    127 H127      -80.5185   23.8225  -70.3462 H         1 UNK         0.2896 
@<TRIPOS>BOND
     1    1    2 1    
     2    1   67 1    
     3    1   68 1    
     4    1   69 1    
     5    2    3 2    
     6    2    4 am   BACKBONE|DICT|INTERRES
     7    4    5 1    
     8    4   70 1    
     9    5    6 1    
    10    5   65 1    
    11    5   71 1    
    12    6    7 1    
    13    6   72 1    
    14    6   73 1    
    15    7    8 1    
    16    8    9 1    
    17    8   74 1    
    18    8   75 1    
    19    9   10 ar   
    20    9   14 ar   
    21   10   11 ar   
    22   10   76 1    
    23   11   12 ar   
    24   11   48 1    
    25   12   13 ar   
    26   12   77 1    
    27   13   14 ar   
    28   13   15 1    
    29   14   78 1    
    30   15   16 1    
    31   15   79 1    
    32   15   80 1    
    33   16   17 1    
    34   17   18 1    
    35   17   81 1    
    36   17   82 1    
    37   18   19 1    
    38   18   22 1    
    39   18   83 1    
    40   19   20 am   BACKBONE|DICT|INTERRES
    41   19   21 2    
    42   20   84 1    
    43   20   85 1    
    44   22   23 am   BACKBONE|DICT|INTERRES
    45   22   86 1    
    46   23   24 2    
    47   23   25 1    
    48   25   26 1    
    49   25   27 1    
    50   25   87 1    
    51   26   88 1    
    52   26   89 1    
    53   26   90 1    
    54   27   28 am   BACKBONE|DICT|INTERRES
    55   27   91 1    
    56   28   29 2    
    57   28   30 1    
    58   30   31 1    
    59   30   32 1    
    60   30   92 1    
    61   31   93 1    
    62   31   94 1    
    63   31   95 1    
    64   32   33 am   BACKBONE|DICT|INTERRES
    65   32   96 1    
    66   33   34 2    
    67   33   35 1    
    68   35   36 1    
    69   35   37 1    
    70   35   97 1    
    71   36   98 1    
    72   36   99 1    
    73   36  100 1    
    74   37   38 am   BACKBONE|DICT|INTERRES
    75   37  101 1    
    76   38   39 2    
    77   38   40 1    
    78   40   41 1    
    79   40   42 1    
    80   40  102 1    
    81   41  103 1    
    82   41  104 1    
    83   41  105 1    
    84   42   43 am   BACKBONE|DICT|INTERRES
    85   42  106 1    
    86   43   44 2    
    87   43   45 1    
    88   45   46 1    
    89   45   49 1    
    90   45  107 1    
    91   46   47 1    
    92   46  108 1    
    93   46  109 1    
    94   47   48 1    
    95   48  110 1    
    96   48  111 1    
    97   49   50 am   BACKBONE|DICT|INTERRES
    98   49  112 1    
    99   50   51 2    
   100   50   52 1    
   101   52   53 1    
   102   52   54 1    
   103   52  113 1    
   104   53  114 1    
   105   53  115 1    
   106   53  116 1    
   107   54   55 am   BACKBONE|DICT|INTERRES
   108   54  117 1    
   109   55   56 2    
   110   55   57 1    
   111   57   58 1    
   112   57   59 1    
   113   57  118 1    
   114   58  119 1    
   115   58  120 1    
   116   58  121 1    
   117   59   60 am   BACKBONE|DICT|INTERRES
   118   59  122 1    
   119   60   61 2    
   120   60   62 1    
   121   62   63 1    
   122   62   64 1    
   123   62  123 1    
   124   63  124 1    
   125   63  125 1    
   126   63  126 1    
   127   64   65 am   BACKBONE|DICT|INTERRES
   128   64  127 1    
   129   65   66 2    
@<TRIPOS>SUBSTRUCTURE
     1 UNK         1 GROUP             0       ****    0 ROOT    
