@<TRIPOS>MOLECULE
3R135
127   129    1
SMALL
USER_CHARGES


@<TRIPOS>ATOM
      1 CA        -83.8883   24.2908  -74.8186 C.3       0 UNK        -0.1998 
      2 C         -82.9701   25.3533  -75.4020 C.2       0 UNK         0.4909 
      3 O         -82.7498   25.3723  -76.6137 O.2       0 UNK        -0.5240 
      4 N         -82.4248   26.2307  -74.5484 N.am      1 UNK        -0.4739 
      5 CA        -81.4659   27.2871  -74.8924 C.3       1 UNK         0.0864 
      6 C6        -81.1502   28.2240  -73.6929 C.3       11 UNK        -0.0881 
      7 S7        -80.8865   27.3664  -72.1009 S.3       11 UNK        -0.2682 
      8 C8        -80.3503   28.7384  -71.0309 C.3       11 UNK         0.0289 
      9 C9        -78.8339   28.8267  -70.9296 C.ar      11 UNK        -0.0687 
     10 C10       -78.1217   27.7891  -70.3221 C.ar      11 UNK        -0.0823 
     11 C11       -76.7326   27.8587  -70.1914 C.ar      11 UNK        -0.0830 
     12 C12       -76.0609   29.0010  -70.6304 C.ar      11 UNK        -0.1021 
     13 C13       -76.7569   30.0498  -71.2409 C.ar      11 UNK        -0.0753 
     14 C14       -78.1449   29.9509  -71.3976 C.ar      11 UNK        -0.0933 
     15 C15       -76.0190   31.3045  -71.6949 C.3       11 UNK         0.0166 
     16 S16       -74.9502   31.0041  -73.1402 S.3       11 UNK        -0.2615 
     17 C17       -73.4501   30.3010  -72.3663 C.3       11 UNK        -0.0865 
     18 CA        -72.1410   30.7638  -73.0554 C.3       10 UNK         0.0862 
     19 C         -70.8922   30.2963  -72.2463 C.2       10 UNK         0.5551 
     20 N         -69.9912   29.4876  -72.7938 N.am      10 UNK        -0.7319 
     21 O         -70.7374   30.6827  -71.0906 O.2       10 UNK        -0.5018 
     22 N         -72.1325   30.3789  -74.4721 N.am      10 UNK        -0.4509 
     23 C         -71.3241   30.8766  -75.4138 C.2       10 UNK         0.4899 
     24 O         -70.5414   31.8101  -75.2298 O.2       10 UNK        -0.4839 
     25 CA        -71.4028   30.1790  -76.7840 C.3       9 UNK         0.0222 
     26 CB        -70.1957   30.4904  -77.6940 C.3       9 UNK        -0.1966 
     27 N         -71.6124   28.7294  -76.6558 N.am      9 UNK        -0.4218 
     28 C         -70.7978   27.8307  -76.0750 C.2       9 UNK         0.5020 
     29 O         -69.7195   28.1326  -75.5614 O.2       9 UNK        -0.5274 
     30 CA        -71.2640   26.3577  -75.9996 C.3       8 UNK         0.0270 
     31 CB        -71.2151   25.8470  -74.5483 C.3       8 UNK        -0.1976 
     32 N         -72.6125   26.1288  -76.5259 N.am      8 UNK        -0.4313 
     33 C         -72.9599   26.1674  -77.8212 C.2       8 UNK         0.5041 
     34 O         -72.1446   26.2557  -78.7394 O.2       8 UNK        -0.5577 
     35 CA        -74.4658   26.1783  -78.1532 C.3       7 UNK         0.0284 
     36 CB        -74.8987   24.8254  -78.7380 C.3       7 UNK        -0.1958 
     37 N         -75.3237   26.5299  -77.0125 N.am      7 UNK        -0.4454 
     38 C         -75.3005   27.7084  -76.3685 C.2       7 UNK         0.5089 
     39 O         -74.6225   28.6651  -76.7448 O.2       7 UNK        -0.5125 
     40 CA        -76.0902   27.8318  -75.0492 C.3       6 UNK         0.0408 
     41 CB        -77.2325   28.8525  -75.1695 C.3       6 UNK        -0.1791 
     42 N         -76.5896   26.5732  -74.4724 N.am      6 UNK        -0.4762 
     43 C         -75.7930   25.5994  -74.0016 C.2       6 UNK         0.5007 
     44 O         -74.5820   25.5593  -74.2311 O.2       6 UNK        -0.5032 
     45 CA        -76.4275   24.4896  -73.1395 C.3       5 UNK         0.0783 
     46 C46       -76.5783   24.8777  -71.6391 C.3       11 UNK        -0.0857 
     47 S47       -75.1407   25.6709  -70.8332 S.3       11 UNK        -0.2512 
     48 C48       -75.9554   26.7056  -69.5706 C.3       11 UNK         0.0225 
     49 N         -77.7153   24.0398  -73.6796 N.am      5 UNK        -0.4615 
     50 C         -78.2576   22.8545  -73.3673 C.2       4 UNK         0.5053 
     51 O         -77.6539   21.9655  -72.7659 O.2       4 UNK        -0.5105 
     52 CA        -79.7273   22.6251  -73.7435 C.3       4 UNK         0.0263 
     53 CB        -80.6550   23.4128  -72.8035 C.3       4 UNK        -0.1981 
     54 N         -79.9998   22.9984  -75.1282 N.am      4 UNK        -0.4224 
     55 C         -79.9608   22.1472  -76.1631 C.2       3 UNK         0.4895 
     56 O         -79.7045   20.9474  -76.0545 O.2       3 UNK        -0.5091 
     57 CA        -80.2736   22.7143  -77.5601 C.3       3 UNK         0.0250 
     58 CB        -81.6980   22.3305  -77.9937 C.3       3 UNK        -0.1996 
     59 N         -80.1175   24.1684  -77.6412 N.am      3 UNK        -0.4254 
     60 C         -78.9292   24.7886  -77.6518 C.2       2 UNK         0.5004 
     61 O         -77.8503   24.2004  -77.6147 O.2       2 UNK        -0.5226 
     62 CA        -78.9420   26.3245  -77.6408 C.3       2 UNK         0.0269 
     63 CB        -78.9976   26.8824  -79.0706 C.3       2 UNK        -0.1926 
     64 N         -80.0302   26.8932  -76.8414 N.am      2 UNK        -0.4687 
     65 C         -80.1934   26.6927  -75.5259 C.2       1 UNK         0.5165 
     66 O         -79.4113   26.0303  -74.8382 O.2       1 UNK        -0.5079 
     67 H67       -83.4676   23.2997  -74.9855 H         1 UNK         0.0900 
     68 H68       -84.0341   24.4225  -73.7467 H         1 UNK         0.0900 
     69 H69       -84.8642   24.3331  -75.3014 H         1 UNK         0.0900 
     70 H70       -82.6167   26.1497  -73.5594 H         1 UNK         0.2959 
     71 H71       -81.9476   27.9049  -75.6535 H         1 UNK         0.1079 
     72 H72       -80.2882   28.8595  -73.9060 H         1 UNK         0.0837 
     73 H73       -81.9881   28.9085  -73.5518 H         1 UNK         0.0837 
     74 H74       -80.7569   28.5770  -70.0316 H         1 UNK         0.0685 
     75 H75       -80.7790   29.6776  -71.3840 H         1 UNK         0.0685 
     76 H76       -78.6547   26.9194  -69.9624 H         1 UNK         0.1434 
     77 H77       -74.9918   29.0632  -70.4961 H         1 UNK         0.1329 
     78 H78       -78.6924   30.7599  -71.8613 H         1 UNK         0.1335 
     79 H79       -76.7347   32.0833  -71.9623 H         1 UNK         0.0680 
     80 H80       -75.4332   31.7101  -70.8690 H         1 UNK         0.0680 
     81 H81       -73.5260   29.2120  -72.3853 H         1 UNK         0.1032 
     82 H82       -73.4315   30.5898  -71.3140 H         1 UNK         0.1032 
     83 H83       -72.1210   31.8549  -73.0211 H         1 UNK         0.0461 
     84 H84       -69.1935   29.2056  -72.2470 H         1 UNK         0.3453 
     85 H85       -70.0742   29.1757  -73.7532 H         1 UNK         0.3453 
     86 H86       -72.7604   29.6329  -74.7308 H         1 UNK         0.2984 
     87 H87       -72.2952   30.5714  -77.2737 H         1 UNK         0.0554 
     88 H88       -70.1251   31.5598  -77.8963 H         1 UNK         0.0847 
     89 H89       -70.2830   29.9849  -78.6557 H         1 UNK         0.0847 
     90 H90       -69.2533   30.1848  -77.2384 H         1 UNK         0.0847 
     91 H91       -72.5136   28.4033  -76.9862 H         1 UNK         0.3141 
     92 H92       -70.5616   25.7694  -76.5934 H         1 UNK         0.0743 
     93 H93       -70.2073   25.9193  -74.1370 H         1 UNK         0.0784 
     94 H94       -71.8752   26.4218  -73.8969 H         1 UNK         0.0784 
     95 H95       -71.5132   24.8002  -74.4848 H         1 UNK         0.0784 
     96 H96       -73.3472   26.0155  -75.8331 H         1 UNK         0.3213 
     97 H97       -74.6112   26.9402  -78.9220 H         1 UNK         0.0855 
     98 H98       -74.9145   24.0410  -77.9805 H         1 UNK         0.0814 
     99 H99       -74.2213   24.5022  -79.5298 H         1 UNK         0.0814 
    100 H100      -75.8916   24.8898  -79.1816 H         1 UNK         0.0814 
    101 H101      -75.8825   25.7845  -76.6205 H         1 UNK         0.3105 
    102 H102      -75.3850   28.2356  -74.3200 H         1 UNK         0.0547 
    103 H103      -77.9590   28.5769  -75.9300 H         1 UNK         0.0837 
    104 H104      -76.8426   29.8338  -75.4436 H         1 UNK         0.0837 
    105 H105      -77.7568   28.9728  -74.2215 H         1 UNK         0.0837 
    106 H106      -77.5889   26.5219  -74.3031 H         1 UNK         0.3020 
    107 H107      -75.7289   23.6512  -73.1942 H         1 UNK         0.1245 
    108 H108      -76.8245   23.9917  -71.0523 H         1 UNK         0.0781 
    109 H109      -77.4408   25.5347  -71.5434 H         1 UNK         0.0781 
    110 H110      -75.1953   27.1020  -68.8958 H         1 UNK         0.0836 
    111 H111      -76.6090   26.0824  -68.9580 H         1 UNK         0.0836 
    112 H112      -78.2766   24.7268  -74.1763 H         1 UNK         0.3022 
    113 H113      -79.9441   21.5641  -73.6004 H         1 UNK         0.0747 
    114 H114      -80.5174   24.4892  -72.9027 H         1 UNK         0.0793 
    115 H115      -81.7024   23.1881  -73.0019 H         1 UNK         0.0793 
    116 H116      -80.4624   23.1567  -71.7608 H         1 UNK         0.0793 
    117 H117      -80.1583   23.9798  -75.3117 H         1 UNK         0.3047 
    118 H118      -79.5719   22.2557  -78.2605 H         1 UNK         0.0822 
    119 H119      -81.9142   22.6820  -79.0027 H         1 UNK         0.0807 
    120 H120      -82.4518   22.7464  -77.3251 H         1 UNK         0.0807 
    121 H121      -81.8268   21.2472  -77.9946 H         1 UNK         0.0807 
    122 H122      -80.9660   24.7245  -77.6110 H         1 UNK         0.2946 
    123 H123      -78.0036   26.6426  -77.1921 H         1 UNK         0.1144 
    124 H124      -78.9051   27.9686  -79.0765 H         1 UNK         0.0793 
    125 H125      -79.9304   26.6203  -79.5716 H         1 UNK         0.0793 
    126 H126      -78.1796   26.4868  -79.6749 H         1 UNK         0.0793 
    127 H127      -80.7372   27.4091  -77.3464 H         1 UNK         0.2896 
@<TRIPOS>BOND
     1    1    2 1    
     2    1   67 1    
     3    1   68 1    
     4    1   69 1    
     5    2    3 2    
     6    2    4 am   BACKBONE|DICT|INTERRES
     7    4    5 1    
     8    4   70 1    
     9    5    6 1    
    10    5   65 1    
    11    5   71 1    
    12    6    7 1    
    13    6   72 1    
    14    6   73 1    
    15    7    8 1    
    16    8    9 1    
    17    8   74 1    
    18    8   75 1    
    19    9   10 ar   
    20    9   14 ar   
    21   10   11 ar   
    22   10   76 1    
    23   11   12 ar   
    24   11   48 1    
    25   12   13 ar   
    26   12   77 1    
    27   13   14 ar   
    28   13   15 1    
    29   14   78 1    
    30   15   16 1    
    31   15   79 1    
    32   15   80 1    
    33   16   17 1    
    34   17   18 1    
    35   17   81 1    
    36   17   82 1    
    37   18   19 1    
    38   18   22 1    
    39   18   83 1    
    40   19   20 am   BACKBONE|DICT|INTERRES
    41   19   21 2    
    42   20   84 1    
    43   20   85 1    
    44   22   23 am   BACKBONE|DICT|INTERRES
    45   22   86 1    
    46   23   24 2    
    47   23   25 1    
    48   25   26 1    
    49   25   27 1    
    50   25   87 1    
    51   26   88 1    
    52   26   89 1    
    53   26   90 1    
    54   27   28 am   BACKBONE|DICT|INTERRES
    55   27   91 1    
    56   28   29 2    
    57   28   30 1    
    58   30   31 1    
    59   30   32 1    
    60   30   92 1    
    61   31   93 1    
    62   31   94 1    
    63   31   95 1    
    64   32   33 am   BACKBONE|DICT|INTERRES
    65   32   96 1    
    66   33   34 2    
    67   33   35 1    
    68   35   36 1    
    69   35   37 1    
    70   35   97 1    
    71   36   98 1    
    72   36   99 1    
    73   36  100 1    
    74   37   38 am   BACKBONE|DICT|INTERRES
    75   37  101 1    
    76   38   39 2    
    77   38   40 1    
    78   40   41 1    
    79   40   42 1    
    80   40  102 1    
    81   41  103 1    
    82   41  104 1    
    83   41  105 1    
    84   42   43 am   BACKBONE|DICT|INTERRES
    85   42  106 1    
    86   43   44 2    
    87   43   45 1    
    88   45   46 1    
    89   45   49 1    
    90   45  107 1    
    91   46   47 1    
    92   46  108 1    
    93   46  109 1    
    94   47   48 1    
    95   48  110 1    
    96   48  111 1    
    97   49   50 am   BACKBONE|DICT|INTERRES
    98   49  112 1    
    99   50   51 2    
   100   50   52 1    
   101   52   53 1    
   102   52   54 1    
   103   52  113 1    
   104   53  114 1    
   105   53  115 1    
   106   53  116 1    
   107   54   55 am   BACKBONE|DICT|INTERRES
   108   54  117 1    
   109   55   56 2    
   110   55   57 1    
   111   57   58 1    
   112   57   59 1    
   113   57  118 1    
   114   58  119 1    
   115   58  120 1    
   116   58  121 1    
   117   59   60 am   BACKBONE|DICT|INTERRES
   118   59  122 1    
   119   60   61 2    
   120   60   62 1    
   121   62   63 1    
   122   62   64 1    
   123   62  123 1    
   124   63  124 1    
   125   63  125 1    
   126   63  126 1    
   127   64   65 am   BACKBONE|DICT|INTERRES
   128   64  127 1    
   129   65   66 2    
@<TRIPOS>SUBSTRUCTURE
     1 UNK         1 GROUP             0       ****    0 ROOT    
