@<TRIPOS>MOLECULE
3R135
127   129    1
SMALL
USER_CHARGES


@<TRIPOS>ATOM
      1 CA        -82.3102   26.0133  -69.2078 C.3       0 UNK        -0.1998 
      2 C         -81.0059   25.5338  -68.5770 C.2       0 UNK         0.4909 
      3 O         -80.9852   25.2488  -67.3807 O.2       0 UNK        -0.5240 
      4 N         -79.8999   25.4210  -69.3220 N.am      1 UNK        -0.4739 
      5 CA        -79.7605   25.6383  -70.7655 C.3       1 UNK         0.0864 
      6 C6        -78.9381   26.9117  -71.0914 C.3       11 UNK        -0.0881 
      7 S7        -79.7299   28.4501  -70.5086 S.3       11 UNK        -0.2682 
      8 C8        -80.2925   29.2033  -72.0775 C.3       11 UNK         0.0289 
      9 C9        -79.2000   29.7616  -72.9964 C.ar      11 UNK        -0.0687 
     10 C10       -79.5827   30.2730  -74.2414 C.ar      11 UNK        -0.0823 
     11 C11       -78.6360   30.7977  -75.1271 C.ar      11 UNK        -0.0830 
     12 C12       -77.2856   30.8004  -74.7670 C.ar      11 UNK        -0.1021 
     13 C13       -76.8846   30.2900  -73.5308 C.ar      11 UNK        -0.0753 
     14 C14       -77.8427   29.7875  -72.6469 C.ar      11 UNK        -0.0933 
     15 C15       -75.4122   30.2367  -73.1620 C.3       11 UNK         0.0166 
     16 S16       -74.8175   31.8136  -72.4870 S.3       11 UNK        -0.2615 
     17 C17       -73.4553   31.2485  -71.4075 C.3       11 UNK        -0.0865 
     18 CA        -72.1336   30.9729  -72.1735 C.3       10 UNK         0.0862 
     19 C         -70.9205   30.8972  -71.2000 C.2       10 UNK         0.5551 
     20 N         -70.1920   29.7895  -71.1236 N.am      10 UNK        -0.7319 
     21 O         -70.6275   31.8696  -70.5087 O.2       10 UNK        -0.5018 
     22 N         -72.2525   29.7965  -73.0522 N.am      10 UNK        -0.4509 
     23 C         -71.6333   29.6493  -74.2267 C.2       10 UNK         0.4899 
     24 O         -70.9271   30.5204  -74.7358 O.2       10 UNK        -0.4839 
     25 CA        -71.8159   28.3185  -74.9813 C.3       9 UNK         0.0222 
     26 CB        -70.5971   27.3998  -74.7708 C.3       9 UNK        -0.1966 
     27 N         -73.0676   27.5841  -74.7407 N.am      9 UNK        -0.4218 
     28 C         -73.5046   26.9690  -73.6314 C.2       9 UNK         0.5020 
     29 O         -72.9754   27.0901  -72.5262 O.2       9 UNK        -0.5274 
     30 CA        -74.7324   26.0487  -73.7854 C.3       8 UNK         0.0270 
     31 CB        -76.0432   26.8259  -73.5983 C.3       8 UNK        -0.1976 
     32 N         -74.7592   25.3554  -75.0763 N.am      8 UNK        -0.4313 
     33 C         -73.8952   24.3966  -75.4430 C.2       8 UNK         0.5041 
     34 O         -73.0310   23.9276  -74.7017 O.2       8 UNK        -0.5577 
     35 CA        -73.9964   23.8927  -76.8912 C.3       7 UNK         0.0284 
     36 CB        -75.0624   22.7911  -77.0231 C.3       7 UNK        -0.1958 
     37 N         -74.2863   24.9886  -77.8189 N.am      7 UNK        -0.4454 
     38 C         -73.3701   25.8660  -78.2554 C.2       7 UNK         0.5089 
     39 O         -72.1708   25.7938  -77.9886 O.2       7 UNK        -0.5125 
     40 CA        -73.8714   27.0300  -79.1305 C.3       6 UNK         0.0408 
     41 CB        -73.7637   26.6643  -80.6192 C.3       6 UNK        -0.1791 
     42 N         -75.2471   27.4365  -78.8305 N.am      6 UNK        -0.4762 
     43 C         -75.6402   28.0256  -77.6908 C.2       6 UNK         0.5007 
     44 O         -74.8725   28.3199  -76.7764 O.2       6 UNK        -0.5032 
     45 CA        -77.1534   28.2694  -77.5203 C.3       5 UNK         0.0783 
     46 C46       -77.5432   29.6500  -78.0991 C.3       11 UNK        -0.0857 
     47 S47       -79.2768   30.0850  -77.7347 S.3       11 UNK        -0.2512 
     48 C48       -79.0795   31.3749  -76.4640 C.3       11 UNK         0.0225 
     49 N         -77.9570   27.1813  -78.0951 N.am      5 UNK        -0.4615 
     50 C         -77.8960   25.9019  -77.7096 C.2       4 UNK         0.5053 
     51 O         -77.1563   25.4904  -76.8106 O.2       4 UNK        -0.5105 
     52 CA        -78.7377   24.9082  -78.5138 C.3       4 UNK         0.0263 
     53 CB        -78.0257   24.5352  -79.8281 C.3       4 UNK        -0.1981 
     54 N         -78.9409   23.7148  -77.7022 N.am      4 UNK        -0.4224 
     55 C         -79.9261   22.8216  -77.8494 C.2       3 UNK         0.4895 
     56 O         -80.7703   22.8769  -78.7448 O.2       3 UNK        -0.5091 
     57 CA        -79.9907   21.6647  -76.8314 C.3       3 UNK         0.0250 
     58 CB        -79.4078   20.3817  -77.4471 C.3       3 UNK        -0.1996 
     59 N         -79.3095   21.9351  -75.5590 N.am      3 UNK        -0.4254 
     60 C         -79.6779   22.8739  -74.6767 C.2       2 UNK         0.5004 
     61 O         -80.6552   23.6128  -74.8305 O.2       2 UNK        -0.5226 
     62 CA        -78.7937   23.0301  -73.4306 C.3       2 UNK         0.0269 
     63 CB        -77.3110   23.2404  -73.8028 C.3       2 UNK        -0.1926 
     64 N         -79.2929   24.1677  -72.6610 N.am      2 UNK        -0.4687 
     65 C         -79.0740   24.3965  -71.3634 C.2       1 UNK         0.5165 
     66 O         -78.3550   23.6855  -70.6550 O.2       1 UNK        -0.5079 
     67 H67       -82.7024   25.2648  -69.8955 H         1 UNK         0.0900 
     68 H68       -82.1697   26.9494  -69.7462 H         1 UNK         0.0900 
     69 H69       -83.0639   26.1873  -68.4401 H         1 UNK         0.0900 
     70 H70       -79.0687   25.0332  -68.8955 H         1 UNK         0.2959 
     71 H71       -80.7381   25.7191  -71.2426 H         1 UNK         0.1079 
     72 H72       -77.9471   26.8527  -70.6367 H         1 UNK         0.0837 
     73 H73       -78.7691   26.9917  -72.1668 H         1 UNK         0.0837 
     74 H74       -80.8800   28.4647  -72.6250 H         1 UNK         0.0685 
     75 H75       -80.9761   30.0162  -71.8291 H         1 UNK         0.0685 
     76 H76       -80.6269   30.2658  -74.5240 H         1 UNK         0.1434 
     77 H77       -76.5429   31.1963  -75.4460 H         1 UNK         0.1329 
     78 H78       -77.5124   29.4061  -71.6922 H         1 UNK         0.1335 
     79 H79       -74.8258   29.9786  -74.0450 H         1 UNK         0.0680 
     80 H80       -75.2404   29.4439  -72.4341 H         1 UNK         0.0680 
     81 H81       -73.7666   30.3706  -70.8386 H         1 UNK         0.1032 
     82 H82       -73.3075   32.0378  -70.6677 H         1 UNK         0.1032 
     83 H83       -71.9414   31.8472  -72.7984 H         1 UNK         0.0461 
     84 H84       -69.4062   29.7560  -70.4934 H         1 UNK         0.3453 
     85 H85       -70.4275   28.9858  -71.6833 H         1 UNK         0.3453 
     86 H86       -72.7293   28.9841  -72.6734 H         1 UNK         0.2984 
     87 H87       -71.8457   28.5775  -76.0409 H         1 UNK         0.0554 
     88 H88       -70.6671   26.5057  -75.3911 H         1 UNK         0.0847 
     89 H89       -70.5014   27.0803  -73.7328 H         1 UNK         0.0847 
     90 H90       -69.6712   27.9092  -75.0410 H         1 UNK         0.0847 
     91 H91       -73.6810   27.5473  -75.5519 H         1 UNK         0.3141 
     92 H92       -74.6751   25.2905  -73.0015 H         1 UNK         0.0743 
     93 H93       -76.1481   27.6222  -74.3347 H         1 UNK         0.0784 
     94 H94       -76.9136   26.1782  -73.6895 H         1 UNK         0.0784 
     95 H95       -76.0863   27.2757  -72.6066 H         1 UNK         0.0784 
     96 H96       -75.4862   25.6248  -75.7320 H         1 UNK         0.3213 
     97 H97       -73.0314   23.4562  -77.1594 H         1 UNK         0.0855 
     98 H98       -76.0541   23.1409  -76.7413 H         1 UNK         0.0814 
     99 H99       -74.8240   21.9449  -76.3775 H         1 UNK         0.0814 
    100 H100      -75.1180   22.4129  -78.0439 H         1 UNK         0.0814 
    101 H101      -75.2572   25.1493  -78.0462 H         1 UNK         0.3105 
    102 H102      -73.2199   27.8862  -78.9423 H         1 UNK         0.0547 
    103 H103      -72.7421   26.3819  -80.8779 H         1 UNK         0.0837 
    104 H104      -74.4087   25.8238  -80.8784 H         1 UNK         0.0837 
    105 H105      -74.0348   27.5063  -81.2563 H         1 UNK         0.0837 
    106 H106      -75.9464   27.2334  -79.5301 H         1 UNK         0.3020 
    107 H107      -77.3486   28.2824  -76.4453 H         1 UNK         0.1245 
    108 H108      -76.8878   30.4331  -77.7140 H         1 UNK         0.0781 
    109 H109      -77.4126   29.6613  -79.1829 H         1 UNK         0.0781 
    110 H110      -78.3753   32.1326  -76.8113 H         1 UNK         0.0836 
    111 H111      -80.0333   31.8897  -76.3387 H         1 UNK         0.0836 
    112 H112      -78.5964   27.4452  -78.8311 H         1 UNK         0.3022 
    113 H113      -79.7054   25.3663  -78.7293 H         1 UNK         0.0747 
    114 H114      -78.6231   23.8408  -80.4193 H         1 UNK         0.0793 
    115 H115      -77.8521   25.4149  -80.4488 H         1 UNK         0.0793 
    116 H116      -77.0583   24.0661  -79.6436 H         1 UNK         0.0793 
    117 H117      -78.3125   23.6397  -76.9133 H         1 UNK         0.3047 
    118 H118      -81.0462   21.4901  -76.6116 H         1 UNK         0.0822 
    119 H119      -79.5283   19.5288  -76.7790 H         1 UNK         0.0807 
    120 H120      -78.3454   20.4879  -77.6711 H         1 UNK         0.0807 
    121 H121      -79.9135   20.1317  -78.3810 H         1 UNK         0.0807 
    122 H122      -78.5025   21.3639  -75.3530 H         1 UNK         0.2946 
    123 H123      -78.8967   22.1240  -72.8289 H         1 UNK         0.1144 
    124 H124      -76.8754   22.3385  -74.2330 H         1 UNK         0.0793 
    125 H125      -76.7057   23.4967  -72.9334 H         1 UNK         0.0793 
    126 H126      -77.1966   24.0378  -74.5354 H         1 UNK         0.0793 
    127 H127      -79.9407   24.7482  -73.1814 H         1 UNK         0.2896 
@<TRIPOS>BOND
     1    1    2 1    
     2    1   67 1    
     3    1   68 1    
     4    1   69 1    
     5    2    3 2    
     6    2    4 am   BACKBONE|DICT|INTERRES
     7    4    5 1    
     8    4   70 1    
     9    5    6 1    
    10    5   65 1    
    11    5   71 1    
    12    6    7 1    
    13    6   72 1    
    14    6   73 1    
    15    7    8 1    
    16    8    9 1    
    17    8   74 1    
    18    8   75 1    
    19    9   10 ar   
    20    9   14 ar   
    21   10   11 ar   
    22   10   76 1    
    23   11   12 ar   
    24   11   48 1    
    25   12   13 ar   
    26   12   77 1    
    27   13   14 ar   
    28   13   15 1    
    29   14   78 1    
    30   15   16 1    
    31   15   79 1    
    32   15   80 1    
    33   16   17 1    
    34   17   18 1    
    35   17   81 1    
    36   17   82 1    
    37   18   19 1    
    38   18   22 1    
    39   18   83 1    
    40   19   20 am   BACKBONE|DICT|INTERRES
    41   19   21 2    
    42   20   84 1    
    43   20   85 1    
    44   22   23 am   BACKBONE|DICT|INTERRES
    45   22   86 1    
    46   23   24 2    
    47   23   25 1    
    48   25   26 1    
    49   25   27 1    
    50   25   87 1    
    51   26   88 1    
    52   26   89 1    
    53   26   90 1    
    54   27   28 am   BACKBONE|DICT|INTERRES
    55   27   91 1    
    56   28   29 2    
    57   28   30 1    
    58   30   31 1    
    59   30   32 1    
    60   30   92 1    
    61   31   93 1    
    62   31   94 1    
    63   31   95 1    
    64   32   33 am   BACKBONE|DICT|INTERRES
    65   32   96 1    
    66   33   34 2    
    67   33   35 1    
    68   35   36 1    
    69   35   37 1    
    70   35   97 1    
    71   36   98 1    
    72   36   99 1    
    73   36  100 1    
    74   37   38 am   BACKBONE|DICT|INTERRES
    75   37  101 1    
    76   38   39 2    
    77   38   40 1    
    78   40   41 1    
    79   40   42 1    
    80   40  102 1    
    81   41  103 1    
    82   41  104 1    
    83   41  105 1    
    84   42   43 am   BACKBONE|DICT|INTERRES
    85   42  106 1    
    86   43   44 2    
    87   43   45 1    
    88   45   46 1    
    89   45   49 1    
    90   45  107 1    
    91   46   47 1    
    92   46  108 1    
    93   46  109 1    
    94   47   48 1    
    95   48  110 1    
    96   48  111 1    
    97   49   50 am   BACKBONE|DICT|INTERRES
    98   49  112 1    
    99   50   51 2    
   100   50   52 1    
   101   52   53 1    
   102   52   54 1    
   103   52  113 1    
   104   53  114 1    
   105   53  115 1    
   106   53  116 1    
   107   54   55 am   BACKBONE|DICT|INTERRES
   108   54  117 1    
   109   55   56 2    
   110   55   57 1    
   111   57   58 1    
   112   57   59 1    
   113   57  118 1    
   114   58  119 1    
   115   58  120 1    
   116   58  121 1    
   117   59   60 am   BACKBONE|DICT|INTERRES
   118   59  122 1    
   119   60   61 2    
   120   60   62 1    
   121   62   63 1    
   122   62   64 1    
   123   62  123 1    
   124   63  124 1    
   125   63  125 1    
   126   63  126 1    
   127   64   65 am   BACKBONE|DICT|INTERRES
   128   64  127 1    
   129   65   66 2    
@<TRIPOS>SUBSTRUCTURE
     1 UNK         1 GROUP             0       ****    0 ROOT    
