@<TRIPOS>MOLECULE
3R135
127   129    1
SMALL
USER_CHARGES


@<TRIPOS>ATOM
      1 CA        -77.1227   24.0556  -68.7254 C.3       0 UNK        -0.1998 
      2 C         -78.4097   24.4305  -69.4447 C.2       0 UNK         0.4909 
      3 O         -79.4281   23.7607  -69.2654 O.2       0 UNK        -0.5240 
      4 N         -78.3733   25.5010  -70.2463 N.am      1 UNK        -0.4739 
      5 CA        -79.4945   25.9756  -71.0673 C.3       1 UNK         0.0864 
      6 C6        -79.2779   27.4434  -71.5114 C.3       11 UNK        -0.0881 
      7 S7        -79.2418   28.5800  -70.0813 S.3       11 UNK        -0.2682 
      8 C8        -80.0636   30.0631  -70.7528 C.3       11 UNK         0.0289 
      9 C9        -79.3272   30.6105  -71.9668 C.ar      11 UNK        -0.0687 
     10 C10       -79.9470   30.6394  -73.2189 C.ar      11 UNK        -0.0823 
     11 C11       -79.2494   31.0864  -74.3455 C.ar      11 UNK        -0.0830 
     12 C12       -77.9203   31.5020  -74.2122 C.ar      11 UNK        -0.1021 
     13 C13       -77.2863   31.4569  -72.9686 C.ar      11 UNK        -0.0753 
     14 C14       -78.0068   31.0480  -71.8439 C.ar      11 UNK        -0.0933 
     15 C15       -75.8055   31.7835  -72.8502 C.3       11 UNK         0.0166 
     16 S16       -74.7786   30.3891  -73.4250 S.3       11 UNK        -0.2615 
     17 C17       -75.3154   29.0400  -72.3119 C.3       11 UNK        -0.0865 
     18 CA        -74.1434   28.1966  -71.7506 C.3       10 UNK         0.0862 
     19 C         -74.6139   27.1522  -70.6921 C.2       10 UNK         0.5551 
     20 N         -73.6969   26.4229  -70.0736 N.am      10 UNK        -0.7319 
     21 O         -75.8054   26.9839  -70.4401 O.2       10 UNK        -0.5018 
     22 N         -73.3546   27.6023  -72.8400 N.am      10 UNK        -0.4509 
     23 C         -72.0999   27.1424  -72.7532 C.2       10 UNK         0.4899 
     24 O         -71.4249   27.1796  -71.7236 O.2       10 UNK        -0.4839 
     25 CA        -71.4904   26.5287  -74.0223 C.3       9 UNK         0.0222 
     26 CB        -71.6604   25.0006  -74.0085 C.3       9 UNK        -0.1966 
     27 N         -72.1100   27.0605  -75.2350 N.am      9 UNK        -0.4218 
     28 C         -71.6284   28.0573  -75.9868 C.2       9 UNK         0.5020 
     29 O         -70.5779   28.6553  -75.7444 O.2       9 UNK        -0.5274 
     30 CA        -72.4717   28.4351  -77.2232 C.3       8 UNK         0.0270 
     31 CB        -71.6824   29.2470  -78.2717 C.3       8 UNK        -0.1976 
     32 N         -73.1284   27.2745  -77.8422 N.am      8 UNK        -0.4313 
     33 C         -72.5426   26.1780  -78.3527 C.2       8 UNK         0.5041 
     34 O         -71.3234   26.0334  -78.4506 O.2       8 UNK        -0.5577 
     35 CA        -73.4571   25.0197  -78.7987 C.3       7 UNK         0.0284 
     36 CB        -73.3285   23.8383  -77.8226 C.3       7 UNK        -0.1958 
     37 N         -74.8700   25.3898  -78.9078 N.am      7 UNK        -0.4454 
     38 C         -75.3886   26.1275  -79.8980 C.2       7 UNK         0.5089 
     39 O         -74.7440   26.5286  -80.8672 O.2       7 UNK        -0.5125 
     40 CA        -76.8702   26.5156  -79.7603 C.3       6 UNK         0.0408 
     41 CB        -77.7776   25.3958  -80.2940 C.3       6 UNK        -0.1791 
     42 N         -77.2574   26.8479  -78.3852 N.am      6 UNK        -0.4762 
     43 C         -76.7632   27.8691  -77.6671 C.2       6 UNK         0.5007 
     44 O         -75.8758   28.6227  -78.0662 O.2       6 UNK        -0.5032 
     45 CA        -77.3319   28.0403  -76.2437 C.3       5 UNK         0.0783 
     46 C46       -78.8049   28.5281  -76.2757 C.3       11 UNK        -0.0857 
     47 S47       -78.9834   30.2047  -76.9848 S.3       11 UNK        -0.2512 
     48 C48       -79.9322   31.0929  -75.7066 C.3       11 UNK         0.0225 
     49 N         -77.1866   26.7854  -75.4998 N.am      5 UNK        -0.4615 
     50 C         -76.0080   26.2521  -75.1366 C.2       4 UNK         0.5053 
     51 O         -74.9322   26.8424  -75.2341 O.2       4 UNK        -0.5105 
     52 CA        -75.9985   24.8055  -74.6104 C.3       4 UNK         0.0263 
     53 CB        -75.8445   24.7799  -73.0845 C.3       4 UNK        -0.1981 
     54 N         -77.1800   24.0387  -75.0104 N.am      4 UNK        -0.4224 
     55 C         -77.4387   23.6784  -76.2778 C.2       3 UNK         0.4895 
     56 O         -76.6690   23.9034  -77.2123 O.2       3 UNK        -0.5091 
     57 CA        -78.7885   23.0016  -76.5805 C.3       3 UNK         0.0250 
     58 CB        -78.5990   21.4856  -76.7441 C.3       3 UNK        -0.1996 
     59 N         -79.8369   23.2532  -75.5865 N.am      3 UNK        -0.4254 
     60 C         -80.3205   24.4568  -75.2470 C.2       2 UNK         0.5004 
     61 O         -79.9274   25.5128  -75.7455 O.2       2 UNK        -0.5226 
     62 CA        -81.3751   24.5059  -74.1219 C.3       2 UNK         0.0269 
     63 CB        -81.8997   23.1185  -73.6851 C.3       2 UNK        -0.1926 
     64 N         -80.8962   25.2510  -72.9481 N.am      2 UNK        -0.4687 
     65 C         -79.7492   25.0488  -72.2789 C.2       1 UNK         0.5165 
     66 O         -78.9209   24.1900  -72.5969 O.2       1 UNK        -0.5079 
     67 H67       -76.7976   23.0622  -69.0331 H         1 UNK         0.0900 
     68 H68       -77.2831   24.0454  -67.6477 H         1 UNK         0.0900 
     69 H69       -76.3179   24.7575  -68.9412 H         1 UNK         0.0900 
     70 H70       -77.5068   26.0244  -70.3418 H         1 UNK         0.2959 
     71 H71       -80.3957   25.9352  -70.4511 H         1 UNK         0.1079 
     72 H72       -78.3438   27.5489  -72.0669 H         1 UNK         0.0837 
     73 H73       -80.0716   27.7664  -72.1871 H         1 UNK         0.0837 
     74 H74       -81.0988   29.8194  -70.9964 H         1 UNK         0.0685 
     75 H75       -80.0997   30.8309  -69.9789 H         1 UNK         0.0685 
     76 H76       -80.9685   30.2984  -73.3186 H         1 UNK         0.1434 
     77 H77       -77.3651   31.8196  -75.0843 H         1 UNK         0.1329 
     78 H78       -77.5247   31.0113  -70.8766 H         1 UNK         0.1335 
     79 H79       -75.5742   32.6674  -73.4464 H         1 UNK         0.0680 
     80 H80       -75.5421   32.0279  -71.8199 H         1 UNK         0.0680 
     81 H81       -75.8672   29.4666  -71.4750 H         1 UNK         0.1032 
     82 H82       -76.0248   28.4095  -72.8506 H         1 UNK         0.1032 
     83 H83       -73.4918   28.8872  -71.2120 H         1 UNK         0.0461 
     84 H84       -72.7217   26.5474  -70.3186 H         1 UNK         0.3453 
     85 H85       -73.9713   25.7405  -69.3864 H         1 UNK         0.3453 
     86 H86       -73.8401   27.5147  -73.7257 H         1 UNK         0.2984 
     87 H87       -70.4216   26.7527  -74.0228 H         1 UNK         0.0554 
     88 H88       -72.7105   24.7076  -74.0080 H         1 UNK         0.0847 
     89 H89       -71.1990   24.5641  -73.1216 H         1 UNK         0.0847 
     90 H90       -71.1869   24.5432  -74.8776 H         1 UNK         0.0847 
     91 H91       -73.0340   26.7092  -75.4694 H         1 UNK         0.3141 
     92 H92       -73.2766   29.0716  -76.8517 H         1 UNK         0.0743 
     93 H93       -70.8219   28.6934  -78.6488 H         1 UNK         0.0784 
     94 H94       -72.3113   29.5110  -79.1220 H         1 UNK         0.0784 
     95 H95       -71.3084   30.1782  -77.8447 H         1 UNK         0.0784 
     96 H96       -74.1411   27.3086  -77.8330 H         1 UNK         0.3213 
     97 H97       -73.1115   24.6906  -79.7812 H         1 UNK         0.0855 
     98 H98       -73.6189   24.1204  -76.8110 H         1 UNK         0.0814 
     99 H99       -72.2993   23.4797  -77.7764 H         1 UNK         0.0814 
    100 H100      -73.9514   22.9976  -78.1289 H         1 UNK         0.0814 
    101 H101      -75.4999   25.0282  -78.1942 H         1 UNK         0.3105 
    102 H102      -77.0355   27.4059  -80.3706 H         1 UNK         0.0547 
    103 H103      -77.5285   25.1533  -81.3280 H         1 UNK         0.0837 
    104 H104      -77.6764   24.4787  -79.7125 H         1 UNK         0.0837 
    105 H105      -78.8267   25.6911  -80.2764 H         1 UNK         0.0837 
    106 H106      -77.9536   26.2549  -77.9566 H         1 UNK         0.3020 
    107 H107      -76.7314   28.7983  -75.7336 H         1 UNK         0.1245 
    108 H108      -79.2153   28.5140  -75.2654 H         1 UNK         0.0781 
    109 H109      -79.4329   27.8493  -76.8547 H         1 UNK         0.0781 
    110 H110      -80.9288   30.6528  -75.6464 H         1 UNK         0.0836 
    111 H111      -80.0716   32.1266  -76.0257 H         1 UNK         0.0836 
    112 H112      -78.0299   26.2297  -75.4008 H         1 UNK         0.3022 
    113 H113      -75.1276   24.3060  -75.0369 H         1 UNK         0.0747 
    114 H114      -75.9505   23.7714  -72.6847 H         1 UNK         0.0793 
    115 H115      -74.8585   25.1380  -72.7916 H         1 UNK         0.0793 
    116 H116      -76.5815   25.4151  -72.5938 H         1 UNK         0.0793 
    117 H117      -77.8695   23.8569  -74.2860 H         1 UNK         0.3047 
    118 H118      -79.1394   23.4068  -77.5318 H         1 UNK         0.0822 
    119 H119      -79.5223   21.0010  -77.0625 H         1 UNK         0.0807 
    120 H120      -78.2750   21.0167  -75.8141 H         1 UNK         0.0807 
    121 H121      -77.8436   21.2657  -77.5002 H         1 UNK         0.0807 
    122 H122      -80.1940   22.4462  -75.0958 H         1 UNK         0.2946 
    123 H123      -82.2180   25.0659  -74.5307 H         1 UNK         0.1144 
    124 H124      -82.7014   23.2203  -72.9534 H         1 UNK         0.0793 
    125 H125      -81.1208   22.5057  -73.2293 H         1 UNK         0.0793 
    126 H126      -82.3138   22.5653  -74.5294 H         1 UNK         0.0793 
    127 H127      -81.5036   25.9970  -72.6385 H         1 UNK         0.2896 
@<TRIPOS>BOND
     1    1    2 1    
     2    1   67 1    
     3    1   68 1    
     4    1   69 1    
     5    2    3 2    
     6    2    4 am   BACKBONE|DICT|INTERRES
     7    4    5 1    
     8    4   70 1    
     9    5    6 1    
    10    5   65 1    
    11    5   71 1    
    12    6    7 1    
    13    6   72 1    
    14    6   73 1    
    15    7    8 1    
    16    8    9 1    
    17    8   74 1    
    18    8   75 1    
    19    9   10 ar   
    20    9   14 ar   
    21   10   11 ar   
    22   10   76 1    
    23   11   12 ar   
    24   11   48 1    
    25   12   13 ar   
    26   12   77 1    
    27   13   14 ar   
    28   13   15 1    
    29   14   78 1    
    30   15   16 1    
    31   15   79 1    
    32   15   80 1    
    33   16   17 1    
    34   17   18 1    
    35   17   81 1    
    36   17   82 1    
    37   18   19 1    
    38   18   22 1    
    39   18   83 1    
    40   19   20 am   BACKBONE|DICT|INTERRES
    41   19   21 2    
    42   20   84 1    
    43   20   85 1    
    44   22   23 am   BACKBONE|DICT|INTERRES
    45   22   86 1    
    46   23   24 2    
    47   23   25 1    
    48   25   26 1    
    49   25   27 1    
    50   25   87 1    
    51   26   88 1    
    52   26   89 1    
    53   26   90 1    
    54   27   28 am   BACKBONE|DICT|INTERRES
    55   27   91 1    
    56   28   29 2    
    57   28   30 1    
    58   30   31 1    
    59   30   32 1    
    60   30   92 1    
    61   31   93 1    
    62   31   94 1    
    63   31   95 1    
    64   32   33 am   BACKBONE|DICT|INTERRES
    65   32   96 1    
    66   33   34 2    
    67   33   35 1    
    68   35   36 1    
    69   35   37 1    
    70   35   97 1    
    71   36   98 1    
    72   36   99 1    
    73   36  100 1    
    74   37   38 am   BACKBONE|DICT|INTERRES
    75   37  101 1    
    76   38   39 2    
    77   38   40 1    
    78   40   41 1    
    79   40   42 1    
    80   40  102 1    
    81   41  103 1    
    82   41  104 1    
    83   41  105 1    
    84   42   43 am   BACKBONE|DICT|INTERRES
    85   42  106 1    
    86   43   44 2    
    87   43   45 1    
    88   45   46 1    
    89   45   49 1    
    90   45  107 1    
    91   46   47 1    
    92   46  108 1    
    93   46  109 1    
    94   47   48 1    
    95   48  110 1    
    96   48  111 1    
    97   49   50 am   BACKBONE|DICT|INTERRES
    98   49  112 1    
    99   50   51 2    
   100   50   52 1    
   101   52   53 1    
   102   52   54 1    
   103   52  113 1    
   104   53  114 1    
   105   53  115 1    
   106   53  116 1    
   107   54   55 am   BACKBONE|DICT|INTERRES
   108   54  117 1    
   109   55   56 2    
   110   55   57 1    
   111   57   58 1    
   112   57   59 1    
   113   57  118 1    
   114   58  119 1    
   115   58  120 1    
   116   58  121 1    
   117   59   60 am   BACKBONE|DICT|INTERRES
   118   59  122 1    
   119   60   61 2    
   120   60   62 1    
   121   62   63 1    
   122   62   64 1    
   123   62  123 1    
   124   63  124 1    
   125   63  125 1    
   126   63  126 1    
   127   64   65 am   BACKBONE|DICT|INTERRES
   128   64  127 1    
   129   65   66 2    
@<TRIPOS>SUBSTRUCTURE
     1 UNK         1 GROUP             0       ****    0 ROOT    
