@<TRIPOS>MOLECULE
3R135
127   129    1
SMALL
USER_CHARGES


@<TRIPOS>ATOM
      1 CA        -79.1569   32.6014  -76.5230 C.3       0 UNK        -0.1998 
      2 C         -79.7106   31.2769  -76.0203 C.2       0 UNK         0.4909 
      3 O         -80.9096   31.0278  -76.1512 O.2       0 UNK        -0.5240 
      4 N         -78.8392   30.4341  -75.4517 N.am      1 UNK        -0.4739 
      5 CA        -79.0965   29.0832  -74.9410 C.3       1 UNK         0.0864 
      6 C6        -80.1648   28.9928  -73.8151 C.3       11 UNK        -0.0881 
      7 S7        -79.7752   30.0505  -72.3825 S.3       11 UNK        -0.2682 
      8 C8        -79.7827   28.8538  -71.0047 C.3       11 UNK         0.0289 
      9 C9        -78.4911   28.0519  -70.8720 C.ar      11 UNK        -0.0687 
     10 C10       -78.5435   26.6787  -70.6054 C.ar      11 UNK        -0.0823 
     11 C11       -77.3699   25.9483  -70.3862 C.ar      11 UNK        -0.0830 
     12 C12       -76.1350   26.6051  -70.4396 C.ar      11 UNK        -0.1021 
     13 C13       -76.0661   27.9762  -70.7071 C.ar      11 UNK        -0.0753 
     14 C14       -77.2471   28.6908  -70.9241 C.ar      11 UNK        -0.0933 
     15 C15       -74.7247   28.6986  -70.7146 C.3       11 UNK         0.0166 
     16 S16       -73.6993   28.1935  -72.1280 S.3       11 UNK        -0.2615 
     17 C17       -72.9610   29.7745  -72.6604 C.3       11 UNK        -0.0865 
     18 CA        -73.8055   30.5047  -73.7392 C.3       10 UNK         0.0862 
     19 C         -73.1480   31.8591  -74.1375 C.2       10 UNK         0.5551 
     20 N         -72.7634   32.0789  -75.3906 N.am      10 UNK        -0.7319 
     21 O         -72.9902   32.7333  -73.2889 O.2       10 UNK        -0.5018 
     22 N         -74.1180   29.6348  -74.8838 N.am      10 UNK        -0.4509 
     23 C         -75.1531   29.8235  -75.7141 C.2       10 UNK         0.4899 
     24 O         -76.0053   30.6974  -75.5446 O.2       10 UNK        -0.4839 
     25 CA        -75.2685   28.8827  -76.9323 C.3       9 UNK         0.0222 
     26 CB        -76.0021   29.5412  -78.1198 C.3       9 UNK        -0.1966 
     27 N         -73.9887   28.3068  -77.3616 N.am      9 UNK        -0.4218 
     28 C         -72.8894   28.9715  -77.7559 C.2       9 UNK         0.5020 
     29 O         -72.8345   30.1988  -77.8615 O.2       9 UNK        -0.5274 
     30 CA        -71.6290   28.1190  -78.0287 C.3       8 UNK         0.0270 
     31 CB        -70.3261   28.9423  -77.9362 C.3       8 UNK        -0.1976 
     32 N         -71.5414   26.9204  -77.1790 N.am      8 UNK        -0.4313 
     33 C         -71.5660   26.8904  -75.8384 C.2       8 UNK         0.5041 
     34 O         -71.6161   27.8944  -75.1254 O.2       8 UNK        -0.5577 
     35 CA        -71.6202   25.5010  -75.1821 C.3       7 UNK         0.0284 
     36 CB        -70.3896   25.2664  -74.2913 C.3       7 UNK        -0.1958 
     37 N         -72.8365   25.3566  -74.3788 N.am      7 UNK        -0.4454 
     38 C         -74.0854   25.4368  -74.8555 C.2       7 UNK         0.5089 
     39 O         -74.3572   25.5419  -76.0545 O.2       7 UNK        -0.5125 
     40 CA        -75.2082   25.4010  -73.8124 C.3       6 UNK         0.0408 
     41 CB        -76.3354   26.3895  -74.1414 C.3       6 UNK        -0.1791 
     42 N         -75.7771   24.0657  -73.7060 N.am      6 UNK        -0.4762 
     43 C         -75.3440   23.1264  -72.8542 C.2       6 UNK         0.5007 
     44 O         -74.3141   23.2325  -72.1862 O.2       6 UNK        -0.5032 
     45 CA        -76.2424   21.8839  -72.6639 C.3       5 UNK         0.0783 
     46 C46       -77.0843   21.9908  -71.3640 C.3       11 UNK        -0.0857 
     47 S47       -78.2096   23.4401  -71.3112 S.3       11 UNK        -0.2512 
     48 C48       -77.4320   24.4693  -70.0180 C.3       11 UNK         0.0225 
     49 N         -77.0993   21.6157  -73.8204 N.am      5 UNK        -0.4615 
     50 C         -76.6755   21.1511  -75.0020 C.2       4 UNK         0.5053 
     51 O         -75.5085   20.8317  -75.2295 O.2       4 UNK        -0.5105 
     52 CA        -77.7254   21.0175  -76.1219 C.3       4 UNK         0.0263 
     53 CB        -78.1351   19.5460  -76.2981 C.3       4 UNK        -0.1981 
     54 N         -78.9330   21.8314  -75.9263 N.am      4 UNK        -0.4224 
     55 C         -78.9597   23.1706  -75.9139 C.2       3 UNK         0.4895 
     56 O         -77.9553   23.8790  -76.0063 O.2       3 UNK        -0.5091 
     57 CA        -80.3304   23.8246  -75.7219 C.3       3 UNK         0.0250 
     58 CB        -80.6337   24.0278  -74.2263 C.3       3 UNK        -0.1996 
     59 N         -80.3260   25.1160  -76.3989 N.am      3 UNK        -0.4254 
     60 C         -81.3867   25.7278  -76.9350 C.2       2 UNK         0.5004 
     61 O         -82.5266   25.2590  -76.9128 O.2       2 UNK        -0.5226 
     62 CA        -81.1292   27.1110  -77.5675 C.3       2 UNK         0.0269 
     63 CB        -82.3825   27.7026  -78.2394 C.3       2 UNK        -0.1926 
     64 N         -80.6381   28.0624  -76.5676 N.am      2 UNK        -0.4687 
     65 C         -79.3840   28.1138  -76.1019 C.2       1 UNK         0.5165 
     66 O         -78.4746   27.4197  -76.5531 O.2       1 UNK        -0.5079 
     67 H67       -79.3485   32.7074  -77.5903 H         1 UNK         0.0900 
     68 H68       -79.6387   33.4300  -76.0048 H         1 UNK         0.0900 
     69 H69       -78.0813   32.6792  -76.3622 H         1 UNK         0.0900 
     70 H70       -77.8571   30.7017  -75.4198 H         1 UNK         0.2959 
     71 H71       -78.1513   28.7566  -74.5042 H         1 UNK         0.1079 
     72 H72       -80.2608   27.9581  -73.4798 H         1 UNK         0.0837 
     73 H73       -81.1523   29.2838  -74.1755 H         1 UNK         0.0837 
     74 H74       -80.6465   28.1948  -71.1060 H         1 UNK         0.0685 
     75 H75       -79.9311   29.4063  -70.0761 H         1 UNK         0.0685 
     76 H76       -79.4997   26.1778  -70.5390 H         1 UNK         0.1434 
     77 H77       -75.2212   26.0551  -70.2594 H         1 UNK         0.1329 
     78 H78       -77.2010   29.7553  -71.1082 H         1 UNK         0.1335 
     79 H79       -74.8797   29.7784  -70.7370 H         1 UNK         0.0680 
     80 H80       -74.1878   28.4847  -69.7895 H         1 UNK         0.0680 
     81 H81       -71.9633   29.5610  -73.0481 H         1 UNK         0.1032 
     82 H82       -72.8098   30.4111  -71.7866 H         1 UNK         0.1032 
     83 H83       -74.7541   30.7673  -73.2666 H         1 UNK         0.0461 
     84 H84       -72.3437   32.9631  -75.6288 H         1 UNK         0.3453 
     85 H85       -72.8854   31.3708  -76.1052 H         1 UNK         0.3453 
     86 H86       -73.4271   28.9193  -75.0857 H         1 UNK         0.2984 
     87 H87       -75.8728   28.0380  -76.6030 H         1 UNK         0.0554 
     88 H88       -77.0174   29.8274  -77.8431 H         1 UNK         0.0847 
     89 H89       -76.0830   28.8570  -78.9641 H         1 UNK         0.0847 
     90 H90       -75.4914   30.4416  -78.4624 H         1 UNK         0.0847 
     91 H91       -73.9194   27.3007  -77.2473 H         1 UNK         0.3141 
     92 H92       -71.7236   27.7633  -79.0557 H         1 UNK         0.0743 
     93 H93       -70.3263   29.7602  -78.6578 H         1 UNK         0.0784 
     94 H94       -70.1966   29.3823  -76.9466 H         1 UNK         0.0784 
     95 H95       -69.4515   28.3270  -78.1468 H         1 UNK         0.0784 
     96 H96       -71.5316   26.0383  -77.6739 H         1 UNK         0.3213 
     97 H97       -71.6371   24.7327  -75.9579 H         1 UNK         0.0855 
     98 H98       -70.3355   25.9930  -73.4792 H         1 UNK         0.0814 
     99 H99       -69.4684   25.3550  -74.8688 H         1 UNK         0.0814 
    100 H100      -70.4011   24.2693  -73.8505 H         1 UNK         0.0814 
    101 H101      -72.7133   25.2823  -73.3789 H         1 UNK         0.3105 
    102 H102      -74.7991   25.6857  -72.8429 H         1 UNK         0.0547 
    103 H103      -76.7768   26.1776  -75.1142 H         1 UNK         0.0837 
    104 H104      -75.9609   27.4120  -74.1567 H         1 UNK         0.0837 
    105 H105      -77.1302   26.3496  -73.3965 H         1 UNK         0.0837 
    106 H106      -76.5902   23.8781  -74.2812 H         1 UNK         0.3020 
    107 H107      -75.5681   21.0313  -72.5530 H         1 UNK         0.1245 
    108 H108      -76.4270   21.9895  -70.4933 H         1 UNK         0.0781 
    109 H109      -77.6952   21.0936  -71.2526 H         1 UNK         0.0781 
    110 H110      -76.4267   24.1055  -69.8028 H         1 UNK         0.0836 
    111 H111      -77.9970   24.3553  -69.0919 H         1 UNK         0.0836 
    112 H112      -78.0741   21.8540  -73.7143 H         1 UNK         0.3022 
    113 H113      -77.2490   21.3522  -77.0459 H         1 UNK         0.0747 
    114 H114      -78.8039   19.4182  -77.1495 H         1 UNK         0.0793 
    115 H115      -77.2626   18.9160  -76.4783 H         1 UNK         0.0793 
    116 H116      -78.6389   19.1581  -75.4118 H         1 UNK         0.0793 
    117 H117      -79.8023   21.3266  -75.8240 H         1 UNK         0.3047 
    118 H118      -81.0916   23.1812  -76.1689 H         1 UNK         0.0822 
    119 H119      -81.6139   24.4813  -74.0785 H         1 UNK         0.0807 
    120 H120      -79.8931   24.6727  -73.7504 H         1 UNK         0.0807 
    121 H121      -80.6332   23.0782  -73.6899 H         1 UNK         0.0807 
    122 H122      -79.4128   25.5577  -76.4727 H         1 UNK         0.2946 
    123 H123      -80.3674   26.9783  -78.3396 H         1 UNK         0.1144 
    124 H124      -82.1616   28.6568  -78.7183 H         1 UNK         0.0793 
    125 H125      -83.1874   27.8667  -77.5217 H         1 UNK         0.0793 
    126 H126      -82.7642   27.0340  -79.0122 H         1 UNK         0.0793 
    127 H127      -81.3101   28.7186  -76.1919 H         1 UNK         0.2896 
@<TRIPOS>BOND
     1    1    2 1    
     2    1   67 1    
     3    1   68 1    
     4    1   69 1    
     5    2    3 2    
     6    2    4 am   BACKBONE|DICT|INTERRES
     7    4    5 1    
     8    4   70 1    
     9    5    6 1    
    10    5   65 1    
    11    5   71 1    
    12    6    7 1    
    13    6   72 1    
    14    6   73 1    
    15    7    8 1    
    16    8    9 1    
    17    8   74 1    
    18    8   75 1    
    19    9   10 ar   
    20    9   14 ar   
    21   10   11 ar   
    22   10   76 1    
    23   11   12 ar   
    24   11   48 1    
    25   12   13 ar   
    26   12   77 1    
    27   13   14 ar   
    28   13   15 1    
    29   14   78 1    
    30   15   16 1    
    31   15   79 1    
    32   15   80 1    
    33   16   17 1    
    34   17   18 1    
    35   17   81 1    
    36   17   82 1    
    37   18   19 1    
    38   18   22 1    
    39   18   83 1    
    40   19   20 am   BACKBONE|DICT|INTERRES
    41   19   21 2    
    42   20   84 1    
    43   20   85 1    
    44   22   23 am   BACKBONE|DICT|INTERRES
    45   22   86 1    
    46   23   24 2    
    47   23   25 1    
    48   25   26 1    
    49   25   27 1    
    50   25   87 1    
    51   26   88 1    
    52   26   89 1    
    53   26   90 1    
    54   27   28 am   BACKBONE|DICT|INTERRES
    55   27   91 1    
    56   28   29 2    
    57   28   30 1    
    58   30   31 1    
    59   30   32 1    
    60   30   92 1    
    61   31   93 1    
    62   31   94 1    
    63   31   95 1    
    64   32   33 am   BACKBONE|DICT|INTERRES
    65   32   96 1    
    66   33   34 2    
    67   33   35 1    
    68   35   36 1    
    69   35   37 1    
    70   35   97 1    
    71   36   98 1    
    72   36   99 1    
    73   36  100 1    
    74   37   38 am   BACKBONE|DICT|INTERRES
    75   37  101 1    
    76   38   39 2    
    77   38   40 1    
    78   40   41 1    
    79   40   42 1    
    80   40  102 1    
    81   41  103 1    
    82   41  104 1    
    83   41  105 1    
    84   42   43 am   BACKBONE|DICT|INTERRES
    85   42  106 1    
    86   43   44 2    
    87   43   45 1    
    88   45   46 1    
    89   45   49 1    
    90   45  107 1    
    91   46   47 1    
    92   46  108 1    
    93   46  109 1    
    94   47   48 1    
    95   48  110 1    
    96   48  111 1    
    97   49   50 am   BACKBONE|DICT|INTERRES
    98   49  112 1    
    99   50   51 2    
   100   50   52 1    
   101   52   53 1    
   102   52   54 1    
   103   52  113 1    
   104   53  114 1    
   105   53  115 1    
   106   53  116 1    
   107   54   55 am   BACKBONE|DICT|INTERRES
   108   54  117 1    
   109   55   56 2    
   110   55   57 1    
   111   57   58 1    
   112   57   59 1    
   113   57  118 1    
   114   58  119 1    
   115   58  120 1    
   116   58  121 1    
   117   59   60 am   BACKBONE|DICT|INTERRES
   118   59  122 1    
   119   60   61 2    
   120   60   62 1    
   121   62   63 1    
   122   62   64 1    
   123   62  123 1    
   124   63  124 1    
   125   63  125 1    
   126   63  126 1    
   127   64   65 am   BACKBONE|DICT|INTERRES
   128   64  127 1    
   129   65   66 2    
@<TRIPOS>SUBSTRUCTURE
     1 UNK         1 GROUP             0       ****    0 ROOT    
