@<TRIPOS>MOLECULE
3R135
127   129    1
SMALL
USER_CHARGES


@<TRIPOS>ATOM
      1 CA        -85.0318   27.3128  -70.7542 C.3       0 UNK        -0.1998 
      2 C         -84.7958   27.3419  -72.2566 C.2       0 UNK         0.4909 
      3 O         -85.5653   26.7444  -73.0097 O.2       0 UNK        -0.5240 
      4 N         -83.7380   28.0347  -72.6982 N.am      1 UNK        -0.4739 
      5 CA        -83.3289   28.1517  -74.1045 C.3       1 UNK         0.0864 
      6 C6        -82.3612   29.3435  -74.3390 C.3       11 UNK        -0.0881 
      7 S7        -81.0154   29.4852  -73.1098 S.3       11 UNK        -0.2682 
      8 C8        -79.6168   28.7790  -74.0273 C.3       11 UNK         0.0289 
      9 C9        -78.3961   28.6411  -73.1330 C.ar      11 UNK        -0.0687 
     10 C10       -78.3344   27.5933  -72.2124 C.ar      11 UNK        -0.0823 
     11 C11       -77.2270   27.4477  -71.3730 C.ar      11 UNK        -0.0830 
     12 C12       -76.1791   28.3686  -71.4535 C.ar      11 UNK        -0.1021 
     13 C13       -76.2271   29.4239  -72.3705 C.ar      11 UNK        -0.0753 
     14 C14       -77.3383   29.5532  -73.2120 C.ar      11 UNK        -0.0933 
     15 C15       -75.1054   30.4533  -72.4069 C.3       11 UNK         0.0166 
     16 S16       -73.4987   29.7277  -72.8690 S.3       11 UNK        -0.2615 
     17 C17       -72.4059   31.1779  -72.6550 C.3       11 UNK        -0.0865 
     18 CA        -71.8322   31.6929  -74.0094 C.3       10 UNK         0.0862 
     19 C         -71.1992   33.1195  -73.9318 C.2       10 UNK         0.5551 
     20 N         -71.7966   34.0447  -73.1916 N.am      10 UNK        -0.7319 
     21 O         -70.2007   33.4242  -74.5829 O.2       10 UNK        -0.5018 
     22 N         -70.9600   30.6967  -74.6564 N.am      10 UNK        -0.4509 
     23 C         -69.7554   30.2881  -74.2377 C.2       10 UNK         0.4899 
     24 O         -69.2254   30.6537  -73.1866 O.2       10 UNK        -0.4839 
     25 CA        -69.0347   29.2740  -75.1483 C.3       9 UNK         0.0222 
     26 CB        -67.5258   29.1865  -74.8513 C.3       9 UNK        -0.1966 
     27 N         -69.6207   27.9371  -75.0326 N.am      9 UNK        -0.4218 
     28 C         -70.8025   27.5654  -75.5408 C.2       9 UNK         0.5020 
     29 O         -71.5182   28.3138  -76.2123 O.2       9 UNK        -0.5274 
     30 CA        -71.2520   26.1284  -75.2135 C.3       8 UNK         0.0270 
     31 CB        -71.5949   25.9979  -73.7188 C.3       8 UNK        -0.1976 
     32 N         -72.4144   25.7182  -76.0059 N.am      8 UNK        -0.4313 
     33 C         -72.3855   25.4448  -77.3196 C.2       8 UNK         0.5041 
     34 O         -71.3432   25.3903  -77.9758 O.2       8 UNK        -0.5577 
     35 CA        -73.7238   25.1699  -78.0380 C.3       7 UNK         0.0284 
     36 CB        -73.8534   23.6784  -78.3887 C.3       7 UNK        -0.1958 
     37 N         -74.9050   25.5754  -77.2758 N.am      7 UNK        -0.4454 
     38 C         -75.2637   26.8360  -76.9974 C.2       7 UNK         0.5089 
     39 O         -74.6980   27.8264  -77.4590 O.2       7 UNK        -0.5125 
     40 CA        -76.4573   27.0266  -76.0406 C.3       6 UNK         0.0408 
     41 CB        -77.7062   27.3902  -76.8592 C.3       6 UNK        -0.1791 
     42 N         -76.7506   25.8625  -75.1902 N.am      6 UNK        -0.4762 
     43 C         -75.9019   25.2944  -74.3164 C.2       6 UNK         0.5007 
     44 O         -74.7521   25.6929  -74.1372 O.2       6 UNK        -0.5032 
     45 CA        -76.3711   24.0064  -73.6077 C.3       5 UNK         0.0783 
     46 C46       -77.1836   24.2685  -72.3195 C.3       11 UNK        -0.0857 
     47 S47       -76.1661   24.9146  -70.9502 S.3       11 UNK        -0.2512 
     48 C48       -77.1741   26.3119  -70.3621 C.3       11 UNK         0.0225 
     49 N         -77.1315   23.1714  -74.5369 N.am      5 UNK        -0.4615 
     50 C         -76.5897   22.2873  -75.3834 C.2       4 UNK         0.5053 
     51 O         -75.3875   22.0287  -75.4259 O.2       4 UNK        -0.5105 
     52 CA        -77.5478   21.5751  -76.3549 C.3       4 UNK         0.0263 
     53 CB        -78.0171   20.2373  -75.7612 C.3       4 UNK        -0.1981 
     54 N         -78.7168   22.3858  -76.7076 N.am      4 UNK        -0.4224 
     55 C         -78.6672   23.5024  -77.4477 C.2       3 UNK         0.4895 
     56 O         -77.6356   23.9410  -77.9561 O.2       3 UNK        -0.5091 
     57 CA        -79.9845   24.2777  -77.6249 C.3       3 UNK         0.0250 
     58 CB        -80.7358   23.7780  -78.8690 C.3       3 UNK        -0.1996 
     59 N         -80.8819   24.2353  -76.4633 N.am      3 UNK        -0.4254 
     60 C         -80.5811   24.6720  -75.2318 C.2       2 UNK         0.5004 
     61 O         -79.4672   25.0816  -74.9007 O.2       2 UNK        -0.5226 
     62 CA        -81.7087   24.6310  -74.1863 C.3       2 UNK         0.0269 
     63 CB        -81.2372   23.9292  -72.9007 C.3       2 UNK        -0.1926 
     64 N         -82.2082   25.9664  -73.8445 N.am      2 UNK        -0.4687 
     65 C         -82.7871   26.8299  -74.6941 C.2       1 UNK         0.5165 
     66 O         -82.9400   26.6066  -75.8958 O.2       1 UNK        -0.5079 
     67 H67       -85.0032   26.2862  -70.3899 H         1 UNK         0.0900 
     68 H68       -86.0105   27.7308  -70.5201 H         1 UNK         0.0900 
     69 H69       -84.2799   27.8862  -70.2122 H         1 UNK         0.0900 
     70 H70       -83.1387   28.5139  -72.0397 H         1 UNK         0.2959 
     71 H71       -84.2345   28.3673  -74.6767 H         1 UNK         0.1079 
     72 H72       -82.9327   30.2712  -74.2827 H         1 UNK         0.0837 
     73 H73       -81.9479   29.3275  -75.3498 H         1 UNK         0.0837 
     74 H74       -79.8989   27.7963  -74.4055 H         1 UNK         0.0685 
     75 H75       -79.3945   29.4026  -74.8945 H         1 UNK         0.0685 
     76 H76       -79.1591   26.8969  -72.1495 H         1 UNK         0.1434 
     77 H77       -75.3236   28.2666  -70.7996 H         1 UNK         0.1329 
     78 H78       -77.3888   30.3715  -73.9170 H         1 UNK         0.1335 
     79 H79       -75.0242   30.9099  -71.4193 H         1 UNK         0.0680 
     80 H80       -75.3418   31.2586  -73.1042 H         1 UNK         0.0680 
     81 H81       -71.5985   30.9093  -71.9724 H         1 UNK         0.1032 
     82 H82       -72.9696   31.9560  -72.1408 H         1 UNK         0.1032 
     83 H83       -72.6718   31.8137  -74.6949 H         1 UNK         0.0461 
     84 H84       -71.3994   34.9709  -73.1600 H         1 UNK         0.3453 
     85 H85       -72.6414   33.8484  -72.6795 H         1 UNK         0.3453 
     86 H86       -71.3325   30.2570  -75.4908 H         1 UNK         0.2984 
     87 H87       -69.1469   29.6164  -76.1794 H         1 UNK         0.0554 
     88 H88       -67.0193   28.5280  -75.5573 H         1 UNK         0.0847 
     89 H89       -67.3292   28.8146  -73.8448 H         1 UNK         0.0847 
     90 H90       -67.0561   30.1678  -74.9327 H         1 UNK         0.0847 
     91 H91       -69.1101   27.2735  -74.4678 H         1 UNK         0.3141 
     92 H92       -70.4270   25.4509  -75.4438 H         1 UNK         0.0743 
     93 H93       -72.3626   26.7137  -73.4202 H         1 UNK         0.0784 
     94 H94       -71.9601   24.9989  -73.4793 H         1 UNK         0.0784 
     95 H95       -70.7219   26.1797  -73.0914 H         1 UNK         0.0784 
     96 H96       -73.3125   25.7641  -75.5333 H         1 UNK         0.3213 
     97 H97       -73.7144   25.7425  -78.9678 H         1 UNK         0.0855 
     98 H98       -73.8530   23.0537  -77.4947 H         1 UNK         0.0814 
     99 H99       -73.0229   23.3507  -79.0153 H         1 UNK         0.0814 
    100 H100      -74.7733   23.4768  -78.9385 H         1 UNK         0.0814 
    101 H101      -75.4811   24.8356  -76.8984 H         1 UNK         0.3105 
    102 H102      -76.2217   27.8576  -75.3732 H         1 UNK         0.0547 
    103 H103      -77.6052   28.3850  -77.2943 H         1 UNK         0.0837 
    104 H104      -77.8578   26.6941  -77.6838 H         1 UNK         0.0837 
    105 H105      -78.6099   27.3875  -76.2549 H         1 UNK         0.0837 
    106 H106      -77.7010   25.5006  -75.2341 H         1 UNK         0.3020 
    107 H107      -75.4694   23.4606  -73.3184 H         1 UNK         0.1245 
    108 H108      -77.6212   23.3334  -71.9664 H         1 UNK         0.0781 
    109 H109      -78.0281   24.9228  -72.5270 H         1 UNK         0.0781 
    110 H110      -76.7524   26.6792  -69.4253 H         1 UNK         0.0836 
    111 H111      -78.1788   25.9594  -70.1227 H         1 UNK         0.0836 
    112 H112      -78.1192   23.3764  -74.6097 H         1 UNK         0.3022 
    113 H113      -76.9911   21.3672  -77.2714 H         1 UNK         0.0747 
    114 H114      -78.6355   19.6840  -76.4684 H         1 UNK         0.0793 
    115 H115      -77.1659   19.6018  -75.5122 H         1 UNK         0.0793 
    116 H116      -78.5953   20.3799  -74.8473 H         1 UNK         0.0793 
    117 H117      -79.6100   22.0922  -76.3397 H         1 UNK         0.3047 
    118 H118      -79.7267   25.3247  -77.7885 H         1 UNK         0.0822 
    119 H119      -81.6143   24.3900  -79.0748 H         1 UNK         0.0807 
    120 H120      -81.0644   22.7441  -78.7561 H         1 UNK         0.0807 
    121 H121      -80.0989   23.8228  -79.7539 H         1 UNK         0.0807 
    122 H122      -81.8295   23.9376  -76.6468 H         1 UNK         0.2946 
    123 H123      -82.5439   24.0585  -74.5954 H         1 UNK         0.1144 
    124 H124      -80.8372   22.9379  -73.1183 H         1 UNK         0.0793 
    125 H125      -82.0595   23.7974  -72.1973 H         1 UNK         0.0793 
    126 H126      -80.4530   24.4935  -72.3951 H         1 UNK         0.0793 
    127 H127      -82.1246   26.2478  -72.8790 H         1 UNK         0.2896 
@<TRIPOS>BOND
     1    1    2 1    
     2    1   67 1    
     3    1   68 1    
     4    1   69 1    
     5    2    3 2    
     6    2    4 am   BACKBONE|DICT|INTERRES
     7    4    5 1    
     8    4   70 1    
     9    5    6 1    
    10    5   65 1    
    11    5   71 1    
    12    6    7 1    
    13    6   72 1    
    14    6   73 1    
    15    7    8 1    
    16    8    9 1    
    17    8   74 1    
    18    8   75 1    
    19    9   10 ar   
    20    9   14 ar   
    21   10   11 ar   
    22   10   76 1    
    23   11   12 ar   
    24   11   48 1    
    25   12   13 ar   
    26   12   77 1    
    27   13   14 ar   
    28   13   15 1    
    29   14   78 1    
    30   15   16 1    
    31   15   79 1    
    32   15   80 1    
    33   16   17 1    
    34   17   18 1    
    35   17   81 1    
    36   17   82 1    
    37   18   19 1    
    38   18   22 1    
    39   18   83 1    
    40   19   20 am   BACKBONE|DICT|INTERRES
    41   19   21 2    
    42   20   84 1    
    43   20   85 1    
    44   22   23 am   BACKBONE|DICT|INTERRES
    45   22   86 1    
    46   23   24 2    
    47   23   25 1    
    48   25   26 1    
    49   25   27 1    
    50   25   87 1    
    51   26   88 1    
    52   26   89 1    
    53   26   90 1    
    54   27   28 am   BACKBONE|DICT|INTERRES
    55   27   91 1    
    56   28   29 2    
    57   28   30 1    
    58   30   31 1    
    59   30   32 1    
    60   30   92 1    
    61   31   93 1    
    62   31   94 1    
    63   31   95 1    
    64   32   33 am   BACKBONE|DICT|INTERRES
    65   32   96 1    
    66   33   34 2    
    67   33   35 1    
    68   35   36 1    
    69   35   37 1    
    70   35   97 1    
    71   36   98 1    
    72   36   99 1    
    73   36  100 1    
    74   37   38 am   BACKBONE|DICT|INTERRES
    75   37  101 1    
    76   38   39 2    
    77   38   40 1    
    78   40   41 1    
    79   40   42 1    
    80   40  102 1    
    81   41  103 1    
    82   41  104 1    
    83   41  105 1    
    84   42   43 am   BACKBONE|DICT|INTERRES
    85   42  106 1    
    86   43   44 2    
    87   43   45 1    
    88   45   46 1    
    89   45   49 1    
    90   45  107 1    
    91   46   47 1    
    92   46  108 1    
    93   46  109 1    
    94   47   48 1    
    95   48  110 1    
    96   48  111 1    
    97   49   50 am   BACKBONE|DICT|INTERRES
    98   49  112 1    
    99   50   51 2    
   100   50   52 1    
   101   52   53 1    
   102   52   54 1    
   103   52  113 1    
   104   53  114 1    
   105   53  115 1    
   106   53  116 1    
   107   54   55 am   BACKBONE|DICT|INTERRES
   108   54  117 1    
   109   55   56 2    
   110   55   57 1    
   111   57   58 1    
   112   57   59 1    
   113   57  118 1    
   114   58  119 1    
   115   58  120 1    
   116   58  121 1    
   117   59   60 am   BACKBONE|DICT|INTERRES
   118   59  122 1    
   119   60   61 2    
   120   60   62 1    
   121   62   63 1    
   122   62   64 1    
   123   62  123 1    
   124   63  124 1    
   125   63  125 1    
   126   63  126 1    
   127   64   65 am   BACKBONE|DICT|INTERRES
   128   64  127 1    
   129   65   66 2    
@<TRIPOS>SUBSTRUCTURE
     1 UNK         1 GROUP             0       ****    0 ROOT    
