@<TRIPOS>MOLECULE
3R135
127   129    1
SMALL
USER_CHARGES


@<TRIPOS>ATOM
      1 CA        -82.4425   30.5222  -76.3806 C.3       0 UNK        -0.1998 
      2 C         -81.7265   29.5330  -75.4733 C.2       0 UNK         0.4909 
      3 O         -80.5615   29.2160  -75.7133 O.2       0 UNK        -0.5240 
      4 N         -82.4108   29.0544  -74.4266 N.am      1 UNK        -0.4739 
      5 CA        -81.9011   28.0506  -73.4869 C.3       1 UNK         0.0864 
      6 C6        -82.7306   28.0290  -72.1744 C.3       11 UNK        -0.0881 
      7 S7        -82.5756   29.4685  -71.0495 S.3       11 UNK        -0.2682 
      8 C8        -81.0704   30.3880  -71.5429 C.3       11 UNK         0.0289 
      9 C9        -79.7252   29.7741  -71.1382 C.ar      11 UNK        -0.0687 
     10 C10       -79.5619   28.4229  -70.8007 C.ar      11 UNK        -0.0823 
     11 C11       -78.3003   27.9054  -70.4885 C.ar      11 UNK        -0.0830 
     12 C12       -77.1993   28.7666  -70.4501 C.ar      11 UNK        -0.1021 
     13 C13       -77.3376   30.1090  -70.8088 C.ar      11 UNK        -0.0753 
     14 C14       -78.5993   30.6030  -71.1496 C.ar      11 UNK        -0.0933 
     15 C15       -76.1219   31.0200  -70.8700 C.3       11 UNK         0.0166 
     16 S16       -75.1964   30.7648  -72.4190 S.3       11 UNK        -0.2615 
     17 C17       -74.0975   29.3752  -71.9736 C.3       11 UNK        -0.0865 
     18 CA        -72.6925   29.5382  -72.6115 C.3       10 UNK         0.0862 
     19 C         -71.6144   28.6613  -71.9040 C.2       10 UNK         0.5551 
     20 N         -70.7312   27.9683  -72.6121 N.am      10 UNK        -0.7319 
     21 O         -71.5632   28.6207  -70.6772 O.2       10 UNK        -0.5018 
     22 N         -72.7537   29.3495  -74.0697 N.am      10 UNK        -0.4509 
     23 C         -71.9847   29.9785  -74.9650 C.2       10 UNK         0.4899 
     24 O         -71.1911   30.8776  -74.6816 O.2       10 UNK        -0.4839 
     25 CA        -72.1055   29.4728  -76.4170 C.3       9 UNK         0.0222 
     26 CB        -71.0732   30.1110  -77.3698 C.3       9 UNK        -0.1966 
     27 N         -72.0497   28.0070  -76.4982 N.am      9 UNK        -0.4218 
     28 C         -71.0729   27.2043  -76.0447 C.2       9 UNK         0.5020 
     29 O         -70.0333   27.6191  -75.5305 O.2       9 UNK        -0.5274 
     30 CA        -71.2947   25.6818  -76.1148 C.3       8 UNK         0.0270 
     31 CB        -71.4535   25.1059  -74.6974 C.3       8 UNK        -0.1976 
     32 N         -72.4520   25.2881  -76.9212 N.am      8 UNK        -0.4313 
     33 C         -72.4854   25.3040  -78.2603 C.2       8 UNK         0.5041 
     34 O         -71.5211   25.6021  -78.9661 O.2       8 UNK        -0.5577 
     35 CA        -73.8280   24.9588  -78.9248 C.3       7 UNK         0.0284 
     36 CB        -73.9933   23.4354  -79.0435 C.3       7 UNK        -0.1958 
     37 N         -74.9838   25.5332  -78.2271 N.am      7 UNK        -0.4454 
     38 C         -75.2179   26.8475  -78.0912 C.2       7 UNK         0.5089 
     39 O         -74.4825   27.7242  -78.5444 O.2       7 UNK        -0.5125 
     40 CA        -76.4536   27.2587  -77.2729 C.3       6 UNK         0.0408 
     41 CB        -77.7465   27.0590  -78.0787 C.3       6 UNK        -0.1791 
     42 N         -76.5477   26.5420  -76.0016 N.am      6 UNK        -0.4762 
     43 C         -75.6572   26.6369  -75.0038 C.2       6 UNK         0.5007 
     44 O         -74.6747   27.3805  -75.0215 O.2       6 UNK        -0.5032 
     45 CA        -75.8788   25.7151  -73.7910 C.3       5 UNK         0.0783 
     46 C46       -76.9087   26.3323  -72.8137 C.3       11 UNK        -0.0857 
     47 S47       -76.7494   25.6347  -71.1352 S.3       11 UNK        -0.2512 
     48 C48       -78.1365   26.4098  -70.2238 C.3       11 UNK         0.0225 
     49 N         -76.2440   24.3557  -74.2049 N.am      5 UNK        -0.4615 
     50 C         -75.4551   23.5346  -74.9128 C.2       4 UNK         0.5053 
     51 O         -74.3145   23.8205  -75.2726 O.2       4 UNK        -0.5105 
     52 CA        -76.0571   22.1830  -75.3291 C.3       4 UNK         0.0263 
     53 CB        -76.0400   21.1940  -74.1527 C.3       4 UNK        -0.1981 
     54 N         -77.4205   22.3120  -75.8477 N.am      4 UNK        -0.4224 
     55 C         -77.7481   22.9708  -76.9694 C.2       3 UNK         0.4895 
     56 O         -76.9302   23.4981  -77.7212 O.2       3 UNK        -0.5091 
     57 CA        -79.2484   23.1121  -77.2771 C.3       3 UNK         0.0250 
     58 CB        -79.7641   21.8800  -78.0373 C.3       3 UNK        -0.1996 
     59 N         -80.0678   23.3361  -76.0807 N.am      3 UNK        -0.4254 
     60 C         -79.9238   24.3774  -75.2497 C.2       2 UNK         0.5004 
     61 O         -79.0708   25.2568  -75.3920 O.2       2 UNK        -0.5226 
     62 CA        -80.8337   24.3972  -74.0138 C.3       2 UNK         0.0269 
     63 CB        -80.1999   23.5799  -72.8749 C.3       2 UNK        -0.1926 
     64 N         -81.0485   25.7653  -73.5451 N.am      2 UNK        -0.4687 
     65 C         -81.8772   26.6449  -74.1218 C.2       1 UNK         0.5165 
     66 O         -82.6252   26.3672  -75.0638 O.2       1 UNK        -0.5079 
     67 H67       -81.8997   31.4666  -76.4082 H         1 UNK         0.0900 
     68 H68       -83.4585   30.7248  -76.0422 H         1 UNK         0.0900 
     69 H69       -82.4950   30.1290  -77.3955 H         1 UNK         0.0900 
     70 H70       -83.3715   29.3338  -74.2901 H         1 UNK         0.2959 
     71 H71       -80.8621   28.2954  -73.2647 H         1 UNK         0.1079 
     72 H72       -82.4812   27.1520  -71.5741 H         1 UNK         0.0837 
     73 H73       -83.7900   27.9099  -72.4104 H         1 UNK         0.0837 
     74 H74       -81.0763   30.5810  -72.6148 H         1 UNK         0.0685 
     75 H75       -81.1460   31.3700  -71.0734 H         1 UNK         0.0685 
     76 H76       -80.4095   27.7572  -70.7932 H         1 UNK         0.1434 
     77 H77       -76.2236   28.3765  -70.1969 H         1 UNK         0.1329 
     78 H78       -78.7039   31.6409  -71.4359 H         1 UNK         0.1335 
     79 H79       -75.4806   30.8612  -70.0021 H         1 UNK         0.0680 
     80 H80       -76.4343   32.0644  -70.8234 H         1 UNK         0.0680 
     81 H81       -74.5570   28.4353  -72.2823 H         1 UNK         0.1032 
     82 H82       -74.0230   29.3306  -70.8861 H         1 UNK         0.1032 
     83 H83       -72.3717   30.5632  -72.4161 H         1 UNK         0.0461 
     84 H84       -70.6993   28.0279  -73.6222 H         1 UNK         0.3453 
     85 H85       -70.0412   27.4207  -72.1238 H         1 UNK         0.3453 
     86 H86       -73.3850   28.6233  -74.4001 H         1 UNK         0.2984 
     87 H87       -73.0997   29.7603  -76.7625 H         1 UNK         0.0554 
     88 H88       -71.2043   29.7535  -78.3911 H         1 UNK         0.0847 
     89 H89       -70.0495   29.8901  -77.0658 H         1 UNK         0.0847 
     90 H90       -71.1794   31.1963  -77.3902 H         1 UNK         0.0847 
     91 H91       -72.8789   27.5671  -76.8781 H         1 UNK         0.3141 
     92 H92       -70.3995   25.2439  -76.5612 H         1 UNK         0.0743 
     93 H93       -72.3220   25.5261  -74.1882 H         1 UNK         0.0784 
     94 H94       -71.5694   24.0221  -74.7195 H         1 UNK         0.0784 
     95 H95       -70.5783   25.3229  -74.0838 H         1 UNK         0.0784 
     96 H96       -73.2677   24.9543  -76.4114 H         1 UNK         0.3213 
     97 H97       -73.8118   25.3780  -79.9331 H         1 UNK         0.0855 
     98 H98       -74.0648   22.9602  -78.0644 H         1 UNK         0.0814 
     99 H99       -73.1451   22.9885  -79.5639 H         1 UNK         0.0814 
    100 H100      -74.8905   23.1773  -79.6063 H         1 UNK         0.0814 
    101 H101      -75.6646   24.8721  -77.8573 H         1 UNK         0.3105 
    102 H102      -76.3622   28.3224  -77.0433 H         1 UNK         0.0547 
    103 H103      -77.9108   26.0112  -78.3297 H         1 UNK         0.0837 
    104 H104      -78.6167   27.4084  -77.5217 H         1 UNK         0.0837 
    105 H105      -77.7131   27.6183  -79.0144 H         1 UNK         0.0837 
    106 H106      -77.3603   25.9425  -75.8705 H         1 UNK         0.3020 
    107 H107      -74.9143   25.6516  -73.2814 H         1 UNK         0.1245 
    108 H108      -76.7600   27.4106  -72.7417 H         1 UNK         0.0781 
    109 H109      -77.9292   26.1942  -73.1727 H         1 UNK         0.0781 
    110 H110      -79.0503   25.8726  -70.4818 H         1 UNK         0.0836 
    111 H111      -77.9839   26.2557  -69.1550 H         1 UNK         0.0836 
    112 H112      -77.1823   24.0596  -73.9863 H         1 UNK         0.3022 
    113 H113      -75.4331   21.7747  -76.1271 H         1 UNK         0.0747 
    114 H114      -76.3848   20.2065  -74.4601 H         1 UNK         0.0793 
    115 H115      -75.0290   21.0742  -73.7605 H         1 UNK         0.0793 
    116 H116      -76.6713   21.5291  -73.3287 H         1 UNK         0.0793 
    117 H117      -78.1620   21.9048  -75.2975 H         1 UNK         0.3047 
    118 H118      -79.3673   23.9847  -77.9228 H         1 UNK         0.0822 
    119 H119      -80.8010   22.0102  -78.3478 H         1 UNK         0.0807 
    120 H120      -79.7050   20.9745  -77.4321 H         1 UNK         0.0807 
    121 H121      -79.1776   21.7066  -78.9409 H         1 UNK         0.0807 
    122 H122      -80.7835   22.6497  -75.8880 H         1 UNK         0.2946 
    123 H123      -81.7990   23.9574  -74.2764 H         1 UNK         0.1144 
    124 H124      -80.8394   23.5706  -71.9919 H         1 UNK         0.0793 
    125 H125      -79.2287   23.9781  -72.5784 H         1 UNK         0.0793 
    126 H126      -80.0498   22.5410  -73.1714 H         1 UNK         0.0793 
    127 H127      -80.4486   26.0763  -72.7970 H         1 UNK         0.2896 
@<TRIPOS>BOND
     1    1    2 1    
     2    1   67 1    
     3    1   68 1    
     4    1   69 1    
     5    2    3 2    
     6    2    4 am   BACKBONE|DICT|INTERRES
     7    4    5 1    
     8    4   70 1    
     9    5    6 1    
    10    5   65 1    
    11    5   71 1    
    12    6    7 1    
    13    6   72 1    
    14    6   73 1    
    15    7    8 1    
    16    8    9 1    
    17    8   74 1    
    18    8   75 1    
    19    9   10 ar   
    20    9   14 ar   
    21   10   11 ar   
    22   10   76 1    
    23   11   12 ar   
    24   11   48 1    
    25   12   13 ar   
    26   12   77 1    
    27   13   14 ar   
    28   13   15 1    
    29   14   78 1    
    30   15   16 1    
    31   15   79 1    
    32   15   80 1    
    33   16   17 1    
    34   17   18 1    
    35   17   81 1    
    36   17   82 1    
    37   18   19 1    
    38   18   22 1    
    39   18   83 1    
    40   19   20 am   BACKBONE|DICT|INTERRES
    41   19   21 2    
    42   20   84 1    
    43   20   85 1    
    44   22   23 am   BACKBONE|DICT|INTERRES
    45   22   86 1    
    46   23   24 2    
    47   23   25 1    
    48   25   26 1    
    49   25   27 1    
    50   25   87 1    
    51   26   88 1    
    52   26   89 1    
    53   26   90 1    
    54   27   28 am   BACKBONE|DICT|INTERRES
    55   27   91 1    
    56   28   29 2    
    57   28   30 1    
    58   30   31 1    
    59   30   32 1    
    60   30   92 1    
    61   31   93 1    
    62   31   94 1    
    63   31   95 1    
    64   32   33 am   BACKBONE|DICT|INTERRES
    65   32   96 1    
    66   33   34 2    
    67   33   35 1    
    68   35   36 1    
    69   35   37 1    
    70   35   97 1    
    71   36   98 1    
    72   36   99 1    
    73   36  100 1    
    74   37   38 am   BACKBONE|DICT|INTERRES
    75   37  101 1    
    76   38   39 2    
    77   38   40 1    
    78   40   41 1    
    79   40   42 1    
    80   40  102 1    
    81   41  103 1    
    82   41  104 1    
    83   41  105 1    
    84   42   43 am   BACKBONE|DICT|INTERRES
    85   42  106 1    
    86   43   44 2    
    87   43   45 1    
    88   45   46 1    
    89   45   49 1    
    90   45  107 1    
    91   46   47 1    
    92   46  108 1    
    93   46  109 1    
    94   47   48 1    
    95   48  110 1    
    96   48  111 1    
    97   49   50 am   BACKBONE|DICT|INTERRES
    98   49  112 1    
    99   50   51 2    
   100   50   52 1    
   101   52   53 1    
   102   52   54 1    
   103   52  113 1    
   104   53  114 1    
   105   53  115 1    
   106   53  116 1    
   107   54   55 am   BACKBONE|DICT|INTERRES
   108   54  117 1    
   109   55   56 2    
   110   55   57 1    
   111   57   58 1    
   112   57   59 1    
   113   57  118 1    
   114   58  119 1    
   115   58  120 1    
   116   58  121 1    
   117   59   60 am   BACKBONE|DICT|INTERRES
   118   59  122 1    
   119   60   61 2    
   120   60   62 1    
   121   62   63 1    
   122   62   64 1    
   123   62  123 1    
   124   63  124 1    
   125   63  125 1    
   126   63  126 1    
   127   64   65 am   BACKBONE|DICT|INTERRES
   128   64  127 1    
   129   65   66 2    
@<TRIPOS>SUBSTRUCTURE
     1 UNK         1 GROUP             0       ****    0 ROOT    
