@<TRIPOS>MOLECULE
3R135
127   129    1
SMALL
USER_CHARGES


@<TRIPOS>ATOM
      1 CA        -84.9409   24.9012  -72.0286 C.3       0 UNK        -0.1998 
      2 C         -84.4809   26.3210  -72.3225 C.2       0 UNK         0.4909 
      3 O         -85.3096   27.2256  -72.4265 O.2       0 UNK        -0.5240 
      4 N         -83.1642   26.5231  -72.4626 N.am      1 UNK        -0.4739 
      5 CA        -82.5374   27.8298  -72.7143 C.3       1 UNK         0.0864 
      6 C6        -81.0292   27.8322  -72.3549 C.3       11 UNK        -0.0881 
      7 S7        -80.6616   27.2298  -70.6706 S.3       11 UNK        -0.2682 
      8 C8        -79.1885   28.2111  -70.2399 C.3       11 UNK         0.0289 
      9 C9        -77.9592   27.8194  -71.0524 C.ar      11 UNK        -0.0687 
     10 C10       -77.0416   26.8881  -70.5516 C.ar      11 UNK        -0.0823 
     11 C11       -75.8724   26.5873  -71.2608 C.ar      11 UNK        -0.0830 
     12 C12       -75.6384   27.2126  -72.4896 C.ar      11 UNK        -0.1021 
     13 C13       -76.5546   28.1295  -73.0099 C.ar      11 UNK        -0.0753 
     14 C14       -77.7100   28.4299  -72.2853 C.ar      11 UNK        -0.0933 
     15 C15       -76.2934   28.8005  -74.3525 C.3       11 UNK         0.0166 
     16 S16       -76.1293   30.6100  -74.2118 S.3       11 UNK        -0.2615 
     17 C17       -74.6376   30.7942  -73.1737 C.3       11 UNK        -0.0865 
     18 CA        -73.4178   31.3229  -73.9719 C.3       10 UNK         0.0862 
     19 C         -72.2597   31.7375  -73.0147 C.2       10 UNK         0.5551 
     20 N         -71.0697   31.1536  -73.0957 N.am      10 UNK        -0.7319 
     21 O         -72.4461   32.6198  -72.1803 O.2       10 UNK        -0.5018 
     22 N         -73.0251   30.3877  -75.0376 N.am      10 UNK        -0.4509 
     23 C         -72.3156   30.7153  -76.1241 C.2       10 UNK         0.4899 
     24 O         -71.9928   31.8706  -76.4064 O.2       10 UNK        -0.4839 
     25 CA        -71.8889   29.5483  -77.0407 C.3       9 UNK         0.0222 
     26 CB        -70.6816   29.9077  -77.9323 C.3       9 UNK        -0.1966 
     27 N         -71.6345   28.2865  -76.3281 N.am      9 UNK        -0.4218 
     28 C         -70.7699   28.0851  -75.3168 C.2       9 UNK         0.5020 
     29 O         -70.0975   28.9802  -74.8037 O.2       9 UNK        -0.5274 
     30 CA        -70.6472   26.6573  -74.7492 C.3       8 UNK         0.0270 
     31 CB        -71.4390   26.5381  -73.4364 C.3       8 UNK        -0.1976 
     32 N         -71.0987   25.6172  -75.6748 N.am      8 UNK        -0.4313 
     33 C         -70.4915   25.2897  -76.8234 C.2       8 UNK         0.5041 
     34 O         -69.4093   25.7548  -77.1827 O.2       8 UNK        -0.5577 
     35 CA        -71.2251   24.2950  -77.7412 C.3       7 UNK         0.0284 
     36 CB        -70.5950   22.8972  -77.6317 C.3       7 UNK        -0.1958 
     37 N         -72.6679   24.1880  -77.4926 N.am      7 UNK        -0.4454 
     38 C         -73.5748   25.1644  -77.6254 C.2       7 UNK         0.5089 
     39 O         -73.2879   26.3293  -77.9034 O.2       7 UNK        -0.5125 
     40 CA        -75.0445   24.7846  -77.3724 C.3       6 UNK         0.0408 
     41 CB        -75.5420   23.7246  -78.3745 C.3       6 UNK        -0.1791 
     42 N         -75.3363   24.3864  -75.9896 N.am      6 UNK        -0.4762 
     43 C         -74.8595   23.3462  -75.2834 C.2       6 UNK         0.5007 
     44 O         -74.0365   22.5373  -75.7139 O.2       6 UNK        -0.5032 
     45 CA        -75.3968   23.1802  -73.8465 C.3       5 UNK         0.0783 
     46 C46       -74.4343   23.8519  -72.8340 C.3       11 UNK        -0.0857 
     47 S47       -75.0878   23.9014  -71.1273 S.3       11 UNK        -0.2512 
     48 C48       -74.8306   25.6462  -70.6644 C.3       11 UNK         0.0225 
     49 N         -76.7727   23.6645  -73.7191 N.am      5 UNK        -0.4615 
     50 C         -77.8443   23.0996  -74.2879 C.2       4 UNK         0.5053 
     51 O         -77.8037   22.0783  -74.9746 O.2       4 UNK        -0.5105 
     52 CA        -79.1947   23.7974  -74.0609 C.3       4 UNK         0.0263 
     53 CB        -79.2561   24.5949  -72.7413 C.3       4 UNK        -0.1981 
     54 N         -79.5849   24.6394  -75.1986 N.am      4 UNK        -0.4224 
     55 C         -78.8778   25.6337  -75.7651 C.2       3 UNK         0.4895 
     56 O         -77.7519   25.9804  -75.4100 O.2       3 UNK        -0.5091 
     57 CA        -79.5634   26.3877  -76.9096 C.3       3 UNK         0.0250 
     58 CB        -79.4581   25.5946  -78.2270 C.3       3 UNK        -0.1996 
     59 N         -80.9553   26.6610  -76.5502 N.am      3 UNK        -0.4254 
     60 C         -81.7923   27.5060  -77.1652 C.2       2 UNK         0.5004 
     61 O         -81.5106   28.1445  -78.1795 O.2       2 UNK        -0.5226 
     62 CA        -83.1832   27.6732  -76.5246 C.3       2 UNK         0.0269 
     63 CB        -84.1957   26.7185  -77.1781 C.3       2 UNK        -0.1926 
     64 N         -83.1579   27.4335  -75.0769 N.am      2 UNK        -0.4687 
     65 C         -82.7104   28.3173  -74.1717 C.2       1 UNK         0.5165 
     66 O         -82.3922   29.4720  -74.4596 O.2       1 UNK        -0.5079 
     67 H67       -85.4787   24.8704  -71.0814 H         1 UNK         0.0900 
     68 H68       -85.6124   24.5539  -72.8134 H         1 UNK         0.0900 
     69 H69       -84.1040   24.2059  -71.9654 H         1 UNK         0.0900 
     70 H70       -82.5256   25.7523  -72.3292 H         1 UNK         0.2959 
     71 H71       -83.0339   28.5665  -72.0783 H         1 UNK         0.1079 
     72 H72       -80.6478   28.8507  -72.4420 H         1 UNK         0.0837 
     73 H73       -80.4561   27.2335  -73.0647 H         1 UNK         0.0837 
     74 H74       -79.4051   29.2723  -70.3720 H         1 UNK         0.0685 
     75 H75       -78.9840   28.0785  -69.1765 H         1 UNK         0.0685 
     76 H76       -77.2235   26.4196  -69.5938 H         1 UNK         0.1434 
     77 H77       -74.7326   27.0054  -73.0374 H         1 UNK         0.1329 
     78 H78       -78.4022   29.1602  -72.6788 H         1 UNK         0.1335 
     79 H79       -77.1254   28.5805  -75.0224 H         1 UNK         0.0680 
     80 H80       -75.4018   28.3924  -74.8305 H         1 UNK         0.0680 
     81 H81       -74.3935   29.8519  -72.6814 H         1 UNK         0.1032 
     82 H82       -74.8979   31.4868  -72.3709 H         1 UNK         0.1032 
     83 H83       -73.7318   32.2494  -74.4570 H         1 UNK         0.0461 
     84 H84       -70.8763   30.4324  -73.7838 H         1 UNK         0.3453 
     85 H85       -70.3394   31.4462  -72.4668 H         1 UNK         0.3453 
     86 H86       -73.2400   29.4159  -74.8812 H         1 UNK         0.2984 
     87 H87       -72.7382   29.3561  -77.6979 H         1 UNK         0.0554 
     88 H88       -70.9039   30.7635  -78.5708 H         1 UNK         0.0847 
     89 H89       -70.4121   29.0789  -78.5870 H         1 UNK         0.0847 
     90 H90       -69.8040   30.1636  -77.3375 H         1 UNK         0.0847 
     91 H91       -72.1448   27.4866  -76.6914 H         1 UNK         0.3141 
     92 H92       -69.5913   26.4816  -74.5327 H         1 UNK         0.0743 
     93 H93       -72.5033   26.7080  -73.5936 H         1 UNK         0.0784 
     94 H94       -71.3164   25.5539  -72.9835 H         1 UNK         0.0784 
     95 H95       -71.0970   27.2732  -72.7060 H         1 UNK         0.0784 
     96 H96       -71.9726   25.1597  -75.4627 H         1 UNK         0.3213 
     97 H97       -71.0958   24.6515  -78.7653 H         1 UNK         0.0855 
     98 H98       -70.7243   22.4739  -76.6347 H         1 UNK         0.0814 
     99 H99       -69.5236   22.9332  -77.8350 H         1 UNK         0.0814 
    100 H100      -71.0355   22.2055  -78.3501 H         1 UNK         0.0814 
    101 H101      -73.0102   23.2971  -77.1418 H         1 UNK         0.3105 
    102 H102      -75.6328   25.6877  -77.5436 H         1 UNK         0.0547 
    103 H103      -76.6090   23.5389  -78.2522 H         1 UNK         0.0837 
    104 H104      -75.0264   22.7709  -78.2600 H         1 UNK         0.0837 
    105 H105      -75.3866   24.0564  -79.4019 H         1 UNK         0.0837 
    106 H106      -76.0397   24.9649  -75.5358 H         1 UNK         0.3020 
    107 H107      -75.4122   22.1084  -73.6353 H         1 UNK         0.1245 
    108 H108      -74.1874   24.8625  -73.1543 H         1 UNK         0.0781 
    109 H109      -73.4852   23.3131  -72.8107 H         1 UNK         0.0781 
    110 H110      -73.8258   25.9579  -70.9545 H         1 UNK         0.0836 
    111 H111      -74.8578   25.7193  -69.5761 H         1 UNK         0.0836 
    112 H112      -76.9004   24.5102  -73.1811 H         1 UNK         0.3022 
    113 H113      -79.9371   23.0005  -73.9923 H         1 UNK         0.0747 
    114 H114      -80.2824   24.8761  -72.5119 H         1 UNK         0.0793 
    115 H115      -78.8981   24.0013  -71.8988 H         1 UNK         0.0793 
    116 H116      -78.6601   25.5072  -72.7784 H         1 UNK         0.0793 
    117 H117      -80.4508   24.3706  -75.6437 H         1 UNK         0.3047 
    118 H118      -79.0484   27.3432  -77.0307 H         1 UNK         0.0822 
    119 H119      -79.8492   26.1641  -79.0700 H         1 UNK         0.0807 
    120 H120      -80.0047   24.6522  -78.1791 H         1 UNK         0.0807 
    121 H121      -78.4180   25.3596  -78.4567 H         1 UNK         0.0807 
    122 H122      -81.2747   26.2401  -75.6904 H         1 UNK         0.2946 
    123 H123      -83.5100   28.6995  -76.7092 H         1 UNK         0.1144 
    124 H124      -83.9235   25.6729  -77.0295 H         1 UNK         0.0793 
    125 H125      -84.2539   26.8902  -78.2540 H         1 UNK         0.0793 
    126 H126      -85.1973   26.8661  -76.7736 H         1 UNK         0.0793 
    127 H127      -83.4409   26.5205  -74.7511 H         1 UNK         0.2896 
@<TRIPOS>BOND
     1    1    2 1    
     2    1   67 1    
     3    1   68 1    
     4    1   69 1    
     5    2    3 2    
     6    2    4 am   BACKBONE|DICT|INTERRES
     7    4    5 1    
     8    4   70 1    
     9    5    6 1    
    10    5   65 1    
    11    5   71 1    
    12    6    7 1    
    13    6   72 1    
    14    6   73 1    
    15    7    8 1    
    16    8    9 1    
    17    8   74 1    
    18    8   75 1    
    19    9   10 ar   
    20    9   14 ar   
    21   10   11 ar   
    22   10   76 1    
    23   11   12 ar   
    24   11   48 1    
    25   12   13 ar   
    26   12   77 1    
    27   13   14 ar   
    28   13   15 1    
    29   14   78 1    
    30   15   16 1    
    31   15   79 1    
    32   15   80 1    
    33   16   17 1    
    34   17   18 1    
    35   17   81 1    
    36   17   82 1    
    37   18   19 1    
    38   18   22 1    
    39   18   83 1    
    40   19   20 am   BACKBONE|DICT|INTERRES
    41   19   21 2    
    42   20   84 1    
    43   20   85 1    
    44   22   23 am   BACKBONE|DICT|INTERRES
    45   22   86 1    
    46   23   24 2    
    47   23   25 1    
    48   25   26 1    
    49   25   27 1    
    50   25   87 1    
    51   26   88 1    
    52   26   89 1    
    53   26   90 1    
    54   27   28 am   BACKBONE|DICT|INTERRES
    55   27   91 1    
    56   28   29 2    
    57   28   30 1    
    58   30   31 1    
    59   30   32 1    
    60   30   92 1    
    61   31   93 1    
    62   31   94 1    
    63   31   95 1    
    64   32   33 am   BACKBONE|DICT|INTERRES
    65   32   96 1    
    66   33   34 2    
    67   33   35 1    
    68   35   36 1    
    69   35   37 1    
    70   35   97 1    
    71   36   98 1    
    72   36   99 1    
    73   36  100 1    
    74   37   38 am   BACKBONE|DICT|INTERRES
    75   37  101 1    
    76   38   39 2    
    77   38   40 1    
    78   40   41 1    
    79   40   42 1    
    80   40  102 1    
    81   41  103 1    
    82   41  104 1    
    83   41  105 1    
    84   42   43 am   BACKBONE|DICT|INTERRES
    85   42  106 1    
    86   43   44 2    
    87   43   45 1    
    88   45   46 1    
    89   45   49 1    
    90   45  107 1    
    91   46   47 1    
    92   46  108 1    
    93   46  109 1    
    94   47   48 1    
    95   48  110 1    
    96   48  111 1    
    97   49   50 am   BACKBONE|DICT|INTERRES
    98   49  112 1    
    99   50   51 2    
   100   50   52 1    
   101   52   53 1    
   102   52   54 1    
   103   52  113 1    
   104   53  114 1    
   105   53  115 1    
   106   53  116 1    
   107   54   55 am   BACKBONE|DICT|INTERRES
   108   54  117 1    
   109   55   56 2    
   110   55   57 1    
   111   57   58 1    
   112   57   59 1    
   113   57  118 1    
   114   58  119 1    
   115   58  120 1    
   116   58  121 1    
   117   59   60 am   BACKBONE|DICT|INTERRES
   118   59  122 1    
   119   60   61 2    
   120   60   62 1    
   121   62   63 1    
   122   62   64 1    
   123   62  123 1    
   124   63  124 1    
   125   63  125 1    
   126   63  126 1    
   127   64   65 am   BACKBONE|DICT|INTERRES
   128   64  127 1    
   129   65   66 2    
@<TRIPOS>SUBSTRUCTURE
     1 UNK         1 GROUP             0       ****    0 ROOT    
