@<TRIPOS>MOLECULE
3R135
127   129    1
SMALL
USER_CHARGES


@<TRIPOS>ATOM
      1 CA        -83.1723   29.5918  -75.1274 C.3       0 UNK        -0.1998 
      2 C         -82.9010   28.2968  -74.3766 C.2       0 UNK         0.4909 
      3 O         -83.8357   27.5468  -74.0938 O.2       0 UNK        -0.5240 
      4 N         -81.6281   28.0384  -74.0512 N.am      1 UNK        -0.4739 
      5 CA        -81.1236   26.8393  -73.3774 C.3       1 UNK         0.0864 
      6 C6        -81.6538   26.6971  -71.9219 C.3       11 UNK        -0.0881 
      7 S7        -80.5353   25.7095  -70.8681 S.3       11 UNK        -0.2682 
      8 C8        -79.7657   26.9828  -69.8151 C.3       11 UNK         0.0289 
      9 C9        -78.6132   27.6971  -70.5102 C.ar      11 UNK        -0.0687 
     10 C10       -78.8633   28.7475  -71.3964 C.ar      11 UNK        -0.0823 
     11 C11       -77.8099   29.4207  -72.0206 C.ar      11 UNK        -0.0830 
     12 C12       -76.4933   29.0744  -71.7036 C.ar      11 UNK        -0.1021 
     13 C13       -76.2218   28.0124  -70.8341 C.ar      11 UNK        -0.0753 
     14 C14       -77.2907   27.3273  -70.2448 C.ar      11 UNK        -0.0933 
     15 C15       -74.7896   27.6051  -70.4898 C.3       11 UNK         0.0166 
     16 S16       -73.6458   27.6047  -71.9153 S.3       11 UNK        -0.2615 
     17 C17       -72.8298   29.2369  -71.7739 C.3       11 UNK        -0.0865 
     18 CA        -72.8189   30.0247  -73.1153 C.3       10 UNK         0.0862 
     19 C         -72.3787   31.5127  -72.9516 C.2       10 UNK         0.5551 
     20 N         -71.8010   32.1418  -73.9677 N.am      10 UNK        -0.7319 
     21 O         -72.5959   32.1202  -71.9061 O.2       10 UNK        -0.5018 
     22 N         -72.1512   29.2877  -74.2033 N.am      10 UNK        -0.4509 
     23 C         -70.8415   29.0334  -74.3250 C.2       10 UNK         0.4899 
     24 O         -69.9862   29.4074  -73.5207 O.2       10 UNK        -0.4839 
     25 CA        -70.4348   28.2280  -75.5767 C.3       9 UNK         0.0222 
     26 CB        -68.9364   27.8565  -75.6036 C.3       9 UNK        -0.1966 
     27 N         -71.2808   27.0446  -75.7804 N.am      9 UNK        -0.4218 
     28 C         -71.4278   26.0000  -74.9494 C.2       9 UNK         0.5020 
     29 O         -70.7727   25.8495  -73.9170 O.2       9 UNK        -0.5274 
     30 CA        -72.4692   24.9304  -75.3276 C.3       8 UNK         0.0270 
     31 CB        -73.3947   24.5980  -74.1434 C.3       8 UNK        -0.1976 
     32 N         -73.2945   25.3177  -76.4783 N.am      8 UNK        -0.4313 
     33 C         -73.3998   24.6139  -77.6153 C.2       8 UNK         0.5041 
     34 O         -72.7794   23.5722  -77.8323 O.2       8 UNK        -0.5577 
     35 CA        -74.3587   25.1360  -78.7035 C.3       7 UNK         0.0284 
     36 CB        -75.6463   24.2961  -78.7303 C.3       7 UNK        -0.1958 
     37 N         -74.7074   26.5519  -78.5582 N.am      7 UNK        -0.4454 
     38 C         -73.8754   27.5660  -78.8392 C.2       7 UNK         0.5089 
     39 O         -72.7329   27.4101  -79.2696 O.2       7 UNK        -0.5125 
     40 CA        -74.3769   28.9956  -78.5521 C.3       6 UNK         0.0408 
     41 CB        -74.9551   29.6254  -79.8289 C.3       6 UNK        -0.1791 
     42 N         -75.3690   29.0870  -77.4740 N.am      6 UNK        -0.4762 
     43 C         -75.1737   28.6696  -76.2154 C.2       6 UNK         0.5007 
     44 O         -74.1227   28.1482  -75.8384 O.2       6 UNK        -0.5032 
     45 CA        -76.3379   28.7840  -75.2103 C.3       5 UNK         0.0783 
     46 C46       -77.5509   29.6105  -75.7230 C.3       11 UNK        -0.0857 
     47 S47       -78.9110   29.8435  -74.5265 S.3       11 UNK        -0.2512 
     48 C48       -78.1101   30.5199  -73.0312 C.3       11 UNK         0.0225 
     49 N         -76.6767   27.4441  -74.7147 N.am      5 UNK        -0.4615 
     50 C         -77.0775   26.4064  -75.4610 C.2       4 UNK         0.5053 
     51 O         -77.3367   26.4906  -76.6638 O.2       4 UNK        -0.5105 
     52 CA        -77.1149   25.0318  -74.7778 C.3       4 UNK         0.0263 
     53 CB        -77.3649   25.0779  -73.2566 C.3       4 UNK        -0.1981 
     54 N         -78.1082   24.1817  -75.4285 N.am      4 UNK        -0.4224 
     55 C         -77.9219   22.8976  -75.7637 C.2       3 UNK         0.4895 
     56 O         -76.8834   22.2747  -75.5344 O.2       3 UNK        -0.5091 
     57 CA        -79.0928   22.1956  -76.4847 C.3       3 UNK         0.0250 
     58 CB        -78.9831   20.6555  -76.4621 C.3       3 UNK        -0.1996 
     59 N         -80.4064   22.6386  -75.9999 N.am      3 UNK        -0.4254 
     60 C         -80.8798   22.5390  -74.7486 C.2       2 UNK         0.5004 
     61 O         -80.3057   21.9578  -73.8257 O.2       2 UNK        -0.5226 
     62 CA        -82.2000   23.2753  -74.4704 C.3       2 UNK         0.0269 
     63 CB        -83.1623   22.4170  -73.6306 C.3       2 UNK        -0.1926 
     64 N         -81.9529   24.5389  -73.7734 N.am      2 UNK        -0.4687 
     65 C         -81.2990   25.5953  -74.2783 C.2       1 UNK         0.5165 
     66 O         -80.8272   25.6180  -75.4182 O.2       1 UNK        -0.5079 
     67 H67       -82.2593   30.1621  -75.2994 H         1 UNK         0.0900 
     68 H68       -83.6250   29.3765  -76.0949 H         1 UNK         0.0900 
     69 H69       -83.8606   30.2174  -74.5599 H         1 UNK         0.0900 
     70 H70       -80.9077   28.6859  -74.3478 H         1 UNK         0.2959 
     71 H71       -80.0474   27.0020  -73.3230 H         1 UNK         0.1079 
     72 H72       -82.6572   26.2691  -71.8942 H         1 UNK         0.0837 
     73 H73       -81.7687   27.6838  -71.4727 H         1 UNK         0.0837 
     74 H74       -79.4050   26.5000  -68.9056 H         1 UNK         0.0685 
     75 H75       -80.5153   27.7049  -69.4885 H         1 UNK         0.0685 
     76 H76       -79.8809   29.0398  -71.6131 H         1 UNK         0.1434 
     77 H77       -75.6765   29.6269  -72.1399 H         1 UNK         0.1329 
     78 H78       -77.0938   26.5133  -69.5604 H         1 UNK         0.1335 
     79 H79       -74.4106   28.2492  -69.6957 H         1 UNK         0.0680 
     80 H80       -74.7867   26.5937  -70.0804 H         1 UNK         0.0680 
     81 H81       -71.8107   29.0867  -71.4142 H         1 UNK         0.1032 
     82 H82       -73.3370   29.8158  -71.0006 H         1 UNK         0.1032 
     83 H83       -73.8542   30.1062  -73.4413 H         1 UNK         0.0461 
     84 H84       -71.5282   33.1062  -73.8619 H         1 UNK         0.3453 
     85 H85       -71.6234   31.6573  -74.8325 H         1 UNK         0.3453 
     86 H86       -72.7800   28.8870  -74.8957 H         1 UNK         0.2984 
     87 H87       -70.6224   28.8814  -76.4300 H         1 UNK         0.0554 
     88 H88       -68.6789   27.3099  -76.5106 H         1 UNK         0.0847 
     89 H89       -68.6533   27.2413  -74.7491 H         1 UNK         0.0847 
     90 H90       -68.3132   28.7512  -75.5773 H         1 UNK         0.0847 
     91 H91       -71.8629   27.0653  -76.6058 H         1 UNK         0.3141 
     92 H92       -71.8920   24.0328  -75.5575 H         1 UNK         0.0743 
     93 H93       -72.8256   24.3503  -73.2465 H         1 UNK         0.0784 
     94 H94       -74.0231   23.7361  -74.3674 H         1 UNK         0.0784 
     95 H95       -74.0438   25.4377  -73.8958 H         1 UNK         0.0784 
     96 H96       -73.8114   26.1861  -76.3835 H         1 UNK         0.3213 
     97 H97       -73.8551   25.0085  -79.6645 H         1 UNK         0.0855 
     98 H98       -76.1827   24.3520  -77.7839 H         1 UNK         0.0814 
     99 H99       -75.4219   23.2440  -78.9115 H         1 UNK         0.0814 
    100 H100      -76.3216   24.6240  -79.5206 H         1 UNK         0.0814 
    101 H101      -75.6251   26.7620  -78.1828 H         1 UNK         0.3105 
    102 H102      -73.5103   29.5850  -78.2453 H         1 UNK         0.0547 
    103 H103      -74.2285   29.5960  -80.6422 H         1 UNK         0.0837 
    104 H104      -75.8473   29.0994  -80.1709 H         1 UNK         0.0837 
    105 H105      -75.2191   30.6714  -79.6729 H         1 UNK         0.0837 
    106 H106      -76.2703   29.4683  -77.7237 H         1 UNK         0.3020 
    107 H107      -75.9062   29.3245  -74.3730 H         1 UNK         0.1245 
    108 H108      -77.2263   30.6058  -76.0328 H         1 UNK         0.0781 
    109 H109      -77.9876   29.1417  -76.6065 H         1 UNK         0.0781 
    110 H110      -78.7862   31.2424  -72.5717 H         1 UNK         0.0836 
    111 H111      -77.2123   31.0776  -73.3011 H         1 UNK         0.0836 
    112 H112      -76.4758   27.2837  -73.7378 H         1 UNK         0.3022 
    113 H113      -76.1257   24.6060  -74.9447 H         1 UNK         0.0747 
    114 H114      -77.4453   24.0727  -72.8422 H         1 UNK         0.0793 
    115 H115      -78.2829   25.6070  -73.0090 H         1 UNK         0.0793 
    116 H116      -76.5459   25.5685  -72.7295 H         1 UNK         0.0793 
    117 H117      -78.9757   24.6411  -75.6882 H         1 UNK         0.3047 
    118 H118      -79.0308   22.5118  -77.5272 H         1 UNK         0.0822 
    119 H119      -79.8165   20.1900  -76.9881 H         1 UNK         0.0807 
    120 H120      -78.9677   20.2647  -75.4442 H         1 UNK         0.0807 
    121 H121      -78.0666   20.3219  -76.9505 H         1 UNK         0.0807 
    122 H122      -80.9471   23.1783  -76.6626 H         1 UNK         0.2946 
    123 H123      -82.6901   23.4986  -75.4208 H         1 UNK         0.1144 
    124 H124      -83.3597   21.4622  -74.1198 H         1 UNK         0.0793 
    125 H125      -84.1224   22.9153  -73.4946 H         1 UNK         0.0793 
    126 H126      -82.7551   22.1985  -72.6424 H         1 UNK         0.0793 
    127 H127      -82.2585   24.5868  -72.8121 H         1 UNK         0.2896 
@<TRIPOS>BOND
     1    1    2 1    
     2    1   67 1    
     3    1   68 1    
     4    1   69 1    
     5    2    3 2    
     6    2    4 am   BACKBONE|DICT|INTERRES
     7    4    5 1    
     8    4   70 1    
     9    5    6 1    
    10    5   65 1    
    11    5   71 1    
    12    6    7 1    
    13    6   72 1    
    14    6   73 1    
    15    7    8 1    
    16    8    9 1    
    17    8   74 1    
    18    8   75 1    
    19    9   10 ar   
    20    9   14 ar   
    21   10   11 ar   
    22   10   76 1    
    23   11   12 ar   
    24   11   48 1    
    25   12   13 ar   
    26   12   77 1    
    27   13   14 ar   
    28   13   15 1    
    29   14   78 1    
    30   15   16 1    
    31   15   79 1    
    32   15   80 1    
    33   16   17 1    
    34   17   18 1    
    35   17   81 1    
    36   17   82 1    
    37   18   19 1    
    38   18   22 1    
    39   18   83 1    
    40   19   20 am   BACKBONE|DICT|INTERRES
    41   19   21 2    
    42   20   84 1    
    43   20   85 1    
    44   22   23 am   BACKBONE|DICT|INTERRES
    45   22   86 1    
    46   23   24 2    
    47   23   25 1    
    48   25   26 1    
    49   25   27 1    
    50   25   87 1    
    51   26   88 1    
    52   26   89 1    
    53   26   90 1    
    54   27   28 am   BACKBONE|DICT|INTERRES
    55   27   91 1    
    56   28   29 2    
    57   28   30 1    
    58   30   31 1    
    59   30   32 1    
    60   30   92 1    
    61   31   93 1    
    62   31   94 1    
    63   31   95 1    
    64   32   33 am   BACKBONE|DICT|INTERRES
    65   32   96 1    
    66   33   34 2    
    67   33   35 1    
    68   35   36 1    
    69   35   37 1    
    70   35   97 1    
    71   36   98 1    
    72   36   99 1    
    73   36  100 1    
    74   37   38 am   BACKBONE|DICT|INTERRES
    75   37  101 1    
    76   38   39 2    
    77   38   40 1    
    78   40   41 1    
    79   40   42 1    
    80   40  102 1    
    81   41  103 1    
    82   41  104 1    
    83   41  105 1    
    84   42   43 am   BACKBONE|DICT|INTERRES
    85   42  106 1    
    86   43   44 2    
    87   43   45 1    
    88   45   46 1    
    89   45   49 1    
    90   45  107 1    
    91   46   47 1    
    92   46  108 1    
    93   46  109 1    
    94   47   48 1    
    95   48  110 1    
    96   48  111 1    
    97   49   50 am   BACKBONE|DICT|INTERRES
    98   49  112 1    
    99   50   51 2    
   100   50   52 1    
   101   52   53 1    
   102   52   54 1    
   103   52  113 1    
   104   53  114 1    
   105   53  115 1    
   106   53  116 1    
   107   54   55 am   BACKBONE|DICT|INTERRES
   108   54  117 1    
   109   55   56 2    
   110   55   57 1    
   111   57   58 1    
   112   57   59 1    
   113   57  118 1    
   114   58  119 1    
   115   58  120 1    
   116   58  121 1    
   117   59   60 am   BACKBONE|DICT|INTERRES
   118   59  122 1    
   119   60   61 2    
   120   60   62 1    
   121   62   63 1    
   122   62   64 1    
   123   62  123 1    
   124   63  124 1    
   125   63  125 1    
   126   63  126 1    
   127   64   65 am   BACKBONE|DICT|INTERRES
   128   64  127 1    
   129   65   66 2    
@<TRIPOS>SUBSTRUCTURE
     1 UNK         1 GROUP             0       ****    0 ROOT    
