@<TRIPOS>MOLECULE
3R135
127   129    1
SMALL
USER_CHARGES


@<TRIPOS>ATOM
      1 CA        -81.4171   22.5137  -72.1106 C.3       0 UNK        -0.1998 
      2 C         -81.2902   23.8856  -72.7524 C.2       0 UNK         0.4909 
      3 O         -80.2962   24.1438  -73.4334 O.2       0 UNK        -0.5240 
      4 N         -82.2964   24.7520  -72.5556 N.am      1 UNK        -0.4739 
      5 CA        -82.4182   26.1606  -72.9837 C.3       1 UNK         0.0864 
      6 C6        -81.3464   27.0896  -72.3579 C.3       11 UNK        -0.0881 
      7 S7        -81.5082   27.2479  -70.5469 S.3       11 UNK        -0.2682 
      8 C8        -79.8054   26.9085  -69.9700 C.3       11 UNK         0.0289 
      9 C9        -78.7112   27.8767  -70.4403 C.ar      11 UNK        -0.0687 
     10 C10       -78.9779   29.0401  -71.1733 C.ar      11 UNK        -0.0823 
     11 C11       -77.9420   29.8717  -71.6046 C.ar      11 UNK        -0.0830 
     12 C12       -76.6250   29.5674  -71.2528 C.ar      11 UNK        -0.1021 
     13 C13       -76.3310   28.4172  -70.5086 C.ar      11 UNK        -0.0753 
     14 C14       -77.3828   27.5810  -70.1173 C.ar      11 UNK        -0.0933 
     15 C15       -74.9069   28.0192  -70.1104 C.3       11 UNK         0.0166 
     16 S16       -73.6409   29.3313  -70.2534 S.3       11 UNK        -0.2615 
     17 C17       -72.7521   28.9049  -71.7978 C.3       11 UNK        -0.0865 
     18 CA        -73.1107   29.7903  -73.0308 C.3       10 UNK         0.0862 
     19 C         -72.5875   31.2626  -72.9811 C.2       10 UNK         0.5551 
     20 N         -72.4175   31.8467  -71.8039 N.am      10 UNK        -0.7319 
     21 O         -72.3795   31.9051  -74.0094 O.2       10 UNK        -0.5018 
     22 N         -72.7773   29.1164  -74.2956 N.am      10 UNK        -0.4509 
     23 C         -71.5452   28.8342  -74.7363 C.2       10 UNK         0.4899 
     24 O         -70.5164   29.0273  -74.0848 O.2       10 UNK        -0.4839 
     25 CA        -71.4661   28.2315  -76.1515 C.3       9 UNK         0.0222 
     26 CB        -70.0431   28.2829  -76.7472 C.3       9 UNK        -0.1966 
     27 N         -72.0058   26.8682  -76.2153 N.am      9 UNK        -0.4218 
     28 C         -71.5883   25.7859  -75.5361 C.2       9 UNK         0.5020 
     29 O         -70.6585   25.7977  -74.7283 O.2       9 UNK        -0.5274 
     30 CA        -72.3084   24.4465  -75.7949 C.3       8 UNK         0.0270 
     31 CB        -72.9843   23.9304  -74.5160 C.3       8 UNK        -0.1976 
     32 N         -73.2992   24.5063  -76.8729 N.am      8 UNK        -0.4313 
     33 C         -73.0006   24.4347  -78.1756 C.2       8 UNK         0.5041 
     34 O         -71.8593   24.2763  -78.6108 O.2       8 UNK        -0.5577 
     35 CA        -74.1676   24.5942  -79.1629 C.3       7 UNK         0.0284 
     36 CB        -74.8971   23.2560  -79.3687 C.3       7 UNK        -0.1958 
     37 N         -75.1334   25.6321  -78.7840 N.am      7 UNK        -0.4454 
     38 C         -74.8560   26.9383  -78.6699 C.2       7 UNK         0.5089 
     39 O         -73.7204   27.4068  -78.7437 O.2       7 UNK        -0.5125 
     40 CA        -76.0507   27.8822  -78.4662 C.3       6 UNK         0.0408 
     41 CB        -77.1875   27.6073  -79.4683 C.3       6 UNK        -0.1791 
     42 N         -76.5747   27.8310  -77.1030 N.am      6 UNK        -0.4762 
     43 C         -76.0122   28.4407  -76.0500 C.2       6 UNK         0.5007 
     44 O         -74.9345   29.0328  -76.0978 O.2       6 UNK        -0.5032 
     45 CA        -76.7804   28.3803  -74.7185 C.3       5 UNK         0.0783 
     46 C46       -78.0178   29.3169  -74.7043 C.3       11 UNK        -0.0857 
     47 S47       -77.5516   30.9938  -74.1446 S.3       11 UNK        -0.2512 
     48 C48       -78.2563   31.0933  -72.4611 C.3       11 UNK         0.0225 
     49 N         -77.1138   26.9980  -74.3881 N.am      5 UNK        -0.4615 
     50 C         -76.2930   26.1865  -73.7080 C.2       4 UNK         0.5053 
     51 O         -75.2033   26.5361  -73.2573 O.2       4 UNK        -0.5105 
     52 CA        -76.7513   24.7333  -73.5033 C.3       4 UNK         0.0263 
     53 CB        -77.4535   24.5829  -72.1477 C.3       4 UNK        -0.1981 
     54 N         -77.6244   24.2514  -74.5773 N.am      4 UNK        -0.4224 
     55 C         -77.1940   24.0325  -75.8289 C.2       3 UNK         0.4895 
     56 O         -76.0290   24.2057  -76.1867 O.2       3 UNK        -0.5091 
     57 CA        -78.2233   23.5688  -76.8719 C.3       3 UNK         0.0250 
     58 CB        -78.3478   22.0377  -76.8545 C.3       3 UNK        -0.1996 
     59 N         -79.5515   24.1690  -76.7260 N.am      3 UNK        -0.4254 
     60 C         -79.8251   25.4793  -76.8003 C.2       2 UNK         0.5004 
     61 O         -78.9709   26.3588  -76.9110 O.2       2 UNK        -0.5226 
     62 CA        -81.2950   25.8717  -76.6485 C.3       2 UNK         0.0269 
     63 CB        -82.2379   25.0785  -77.5732 C.3       2 UNK        -0.1926 
     64 N         -81.6361   25.6552  -75.2526 N.am      2 UNK        -0.4687 
     65 C         -82.4624   26.3900  -74.5115 C.2       1 UNK         0.5165 
     66 O         -83.2097   27.2516  -74.9769 O.2       1 UNK        -0.5079 
     67 H67       -81.4075   21.7397  -72.8774 H         1 UNK         0.0900 
     68 H68       -80.5771   22.3386  -71.4390 H         1 UNK         0.0900 
     69 H69       -82.3380   22.4139  -71.5364 H         1 UNK         0.0900 
     70 H70       -83.0847   24.4301  -72.0112 H         1 UNK         0.2959 
     71 H71       -83.3919   26.4902  -72.6166 H         1 UNK         0.1079 
     72 H72       -80.3426   26.7471  -72.6158 H         1 UNK         0.0837 
     73 H73       -81.4333   28.0978  -72.7685 H         1 UNK         0.0837 
     74 H74       -79.8182   26.9165  -68.8794 H         1 UNK         0.0685 
     75 H75       -79.5447   25.8909  -70.2609 H         1 UNK         0.0685 
     76 H76       -79.9918   29.3087  -71.4256 H         1 UNK         0.1434 
     77 H77       -75.8390   30.2311  -71.5778 H         1 UNK         0.1329 
     78 H78       -77.1642   26.6871  -69.5488 H         1 UNK         0.1335 
     79 H79       -74.6096   27.1403  -70.6824 H         1 UNK         0.0680 
     80 H80       -74.9190   27.7042  -69.0659 H         1 UNK         0.0680 
     81 H81       -71.6797   28.9530  -71.6011 H         1 UNK         0.1032 
     82 H82       -72.9508   27.8583  -72.0334 H         1 UNK         0.1032 
     83 H83       -74.1944   29.8824  -73.0660 H         1 UNK         0.0461 
     84 H84       -72.0980   32.8015  -71.7616 H         1 UNK         0.3453 
     85 H85       -72.6198   31.3369  -70.9556 H         1 UNK         0.3453 
     86 H86       -73.5555   28.9866  -74.9395 H         1 UNK         0.2984 
     87 H87       -72.1060   28.8429  -76.7901 H         1 UNK         0.0554 
     88 H88       -69.6674   29.3066  -76.7666 H         1 UNK         0.0847 
     89 H89       -70.0303   27.9128  -77.7724 H         1 UNK         0.0847 
     90 H90       -69.3351   27.6893  -76.1679 H         1 UNK         0.0847 
     91 H91       -72.7666   26.7463  -76.8731 H         1 UNK         0.3141 
     92 H92       -71.5405   23.7220  -76.0749 H         1 UNK         0.0743 
     93 H93       -72.2489   23.7446  -73.7323 H         1 UNK         0.0784 
     94 H94       -73.6929   24.6572  -74.1269 H         1 UNK         0.0784 
     95 H95       -73.5180   22.9960  -74.6914 H         1 UNK         0.0784 
     96 H96       -74.2814   24.5689  -76.6034 H         1 UNK         0.3213 
     97 H97       -73.7381   24.8921  -80.1220 H         1 UNK         0.0855 
     98 H98       -75.3630   22.9000  -78.4496 H         1 UNK         0.0814 
     99 H99       -74.2022   22.4827  -79.6990 H         1 UNK         0.0814 
    100 H100      -75.6729   23.3376  -80.1301 H         1 UNK         0.0814 
    101 H101      -76.0863   25.3335  -78.6425 H         1 UNK         0.3105 
    102 H102      -75.6952   28.8973  -78.6574 H         1 UNK         0.0547 
    103 H103      -77.9610   28.3725  -79.4011 H         1 UNK         0.0837 
    104 H104      -76.8156   27.6154  -80.4938 H         1 UNK         0.0837 
    105 H105      -77.6670   26.6427  -79.3010 H         1 UNK         0.0837 
    106 H106      -77.4528   27.3287  -76.9752 H         1 UNK         0.3020 
    107 H107      -76.0930   28.7370  -73.9489 H         1 UNK         0.1245 
    108 H108      -78.7895   28.9261  -74.0402 H         1 UNK         0.0781 
    109 H109      -78.4939   29.3836  -75.6847 H         1 UNK         0.0781 
    110 H110      -79.3342   31.2398  -72.5461 H         1 UNK         0.0836 
    111 H111      -77.8676   31.9853  -71.9679 H         1 UNK         0.0836 
    112 H112      -77.9630   26.6206  -74.7842 H         1 UNK         0.3022 
    113 H113      -75.8632   24.0996  -73.4879 H         1 UNK         0.0747 
    114 H114      -77.7905   23.5598  -71.9810 H         1 UNK         0.0793 
    115 H115      -76.7802   24.8436  -71.3304 H         1 UNK         0.0793 
    116 H116      -78.3193   25.2397  -72.0808 H         1 UNK         0.0793 
    117 H117      -78.6019   24.1016  -74.3388 H         1 UNK         0.3047 
    118 H118      -77.8436   23.8649  -77.8516 H         1 UNK         0.0822 
    119 H119      -77.3727   21.5649  -76.9822 H         1 UNK         0.0807 
    120 H120      -78.9858   21.6813  -77.6634 H         1 UNK         0.0807 
    121 H121      -78.7642   21.6771  -75.9129 H         1 UNK         0.0807 
    122 H122      -80.3203   23.5284  -76.5926 H         1 UNK         0.2946 
    123 H123      -81.3764   26.9347  -76.8885 H         1 UNK         0.1144 
    124 H124      -83.2557   25.4643  -77.5130 H         1 UNK         0.0793 
    125 H125      -82.2740   24.0188  -77.3194 H         1 UNK         0.0793 
    126 H126      -81.9232   25.1597  -78.6145 H         1 UNK         0.0793 
    127 H127      -81.0426   25.0029  -74.7391 H         1 UNK         0.2896 
@<TRIPOS>BOND
     1    1    2 1    
     2    1   67 1    
     3    1   68 1    
     4    1   69 1    
     5    2    3 2    
     6    2    4 am   BACKBONE|DICT|INTERRES
     7    4    5 1    
     8    4   70 1    
     9    5    6 1    
    10    5   65 1    
    11    5   71 1    
    12    6    7 1    
    13    6   72 1    
    14    6   73 1    
    15    7    8 1    
    16    8    9 1    
    17    8   74 1    
    18    8   75 1    
    19    9   10 ar   
    20    9   14 ar   
    21   10   11 ar   
    22   10   76 1    
    23   11   12 ar   
    24   11   48 1    
    25   12   13 ar   
    26   12   77 1    
    27   13   14 ar   
    28   13   15 1    
    29   14   78 1    
    30   15   16 1    
    31   15   79 1    
    32   15   80 1    
    33   16   17 1    
    34   17   18 1    
    35   17   81 1    
    36   17   82 1    
    37   18   19 1    
    38   18   22 1    
    39   18   83 1    
    40   19   20 am   BACKBONE|DICT|INTERRES
    41   19   21 2    
    42   20   84 1    
    43   20   85 1    
    44   22   23 am   BACKBONE|DICT|INTERRES
    45   22   86 1    
    46   23   24 2    
    47   23   25 1    
    48   25   26 1    
    49   25   27 1    
    50   25   87 1    
    51   26   88 1    
    52   26   89 1    
    53   26   90 1    
    54   27   28 am   BACKBONE|DICT|INTERRES
    55   27   91 1    
    56   28   29 2    
    57   28   30 1    
    58   30   31 1    
    59   30   32 1    
    60   30   92 1    
    61   31   93 1    
    62   31   94 1    
    63   31   95 1    
    64   32   33 am   BACKBONE|DICT|INTERRES
    65   32   96 1    
    66   33   34 2    
    67   33   35 1    
    68   35   36 1    
    69   35   37 1    
    70   35   97 1    
    71   36   98 1    
    72   36   99 1    
    73   36  100 1    
    74   37   38 am   BACKBONE|DICT|INTERRES
    75   37  101 1    
    76   38   39 2    
    77   38   40 1    
    78   40   41 1    
    79   40   42 1    
    80   40  102 1    
    81   41  103 1    
    82   41  104 1    
    83   41  105 1    
    84   42   43 am   BACKBONE|DICT|INTERRES
    85   42  106 1    
    86   43   44 2    
    87   43   45 1    
    88   45   46 1    
    89   45   49 1    
    90   45  107 1    
    91   46   47 1    
    92   46  108 1    
    93   46  109 1    
    94   47   48 1    
    95   48  110 1    
    96   48  111 1    
    97   49   50 am   BACKBONE|DICT|INTERRES
    98   49  112 1    
    99   50   51 2    
   100   50   52 1    
   101   52   53 1    
   102   52   54 1    
   103   52  113 1    
   104   53  114 1    
   105   53  115 1    
   106   53  116 1    
   107   54   55 am   BACKBONE|DICT|INTERRES
   108   54  117 1    
   109   55   56 2    
   110   55   57 1    
   111   57   58 1    
   112   57   59 1    
   113   57  118 1    
   114   58  119 1    
   115   58  120 1    
   116   58  121 1    
   117   59   60 am   BACKBONE|DICT|INTERRES
   118   59  122 1    
   119   60   61 2    
   120   60   62 1    
   121   62   63 1    
   122   62   64 1    
   123   62  123 1    
   124   63  124 1    
   125   63  125 1    
   126   63  126 1    
   127   64   65 am   BACKBONE|DICT|INTERRES
   128   64  127 1    
   129   65   66 2    
@<TRIPOS>SUBSTRUCTURE
     1 UNK         1 GROUP             0       ****    0 ROOT    
