@<TRIPOS>MOLECULE
3R135
127   129    1
SMALL
USER_CHARGES


@<TRIPOS>ATOM
      1 CA        -82.8554   25.8585  -72.2611 C.3       0 UNK        -0.1998 
      2 C         -82.6603   25.8852  -73.7688 C.2       0 UNK         0.4909 
      3 O         -83.2870   25.1011  -74.4826 O.2       0 UNK        -0.5240 
      4 N         -81.7996   26.7845  -74.2643 N.am      1 UNK        -0.4739 
      5 CA        -81.4791   26.9209  -75.6877 C.3       1 UNK         0.0864 
      6 C6        -80.7509   28.2558  -75.9984 C.3       11 UNK        -0.0881 
      7 S7        -79.0684   28.3847  -75.3056 S.3       11 UNK        -0.2682 
      8 C8        -79.2850   29.4944  -73.8866 C.3       11 UNK         0.0289 
      9 C9        -78.0759   29.3764  -72.9751 C.ar      11 UNK        -0.0687 
     10 C10       -77.9856   28.3005  -72.0903 C.ar      11 UNK        -0.0823 
     11 C11       -76.8466   28.1291  -71.3022 C.ar      11 UNK        -0.0830 
     12 C12       -75.8181   29.0723  -71.3629 C.ar      11 UNK        -0.1021 
     13 C13       -75.8765   30.1423  -72.2671 C.ar      11 UNK        -0.0753 
     14 C14       -77.0195   30.2885  -73.0627 C.ar      11 UNK        -0.0933 
     15 C15       -74.7136   31.1171  -72.4817 C.3       11 UNK         0.0166 
     16 S16       -73.4730   31.2137  -71.1429 S.3       11 UNK        -0.2615 
     17 C17       -72.5106   29.6730  -71.3535 C.3       11 UNK        -0.0865 
     18 CA        -71.0775   29.9232  -71.8877 C.3       10 UNK         0.0862 
     19 C         -70.1580   28.6963  -71.6025 C.2       10 UNK         0.5551 
     20 N         -69.6374   27.9900  -72.5988 N.am      10 UNK        -0.7319 
     21 O         -69.9061   28.3832  -70.4415 O.2       10 UNK        -0.5018 
     22 N         -71.1018   30.3565  -73.2935 N.am      10 UNK        -0.4509 
     23 C         -70.0894   30.9646  -73.9233 C.2       10 UNK         0.4899 
     24 O         -69.0673   31.3513  -73.3538 O.2       10 UNK        -0.4839 
     25 CA        -70.2435   31.1642  -75.4471 C.3       9 UNK         0.0222 
     26 CB        -68.8818   31.3105  -76.1585 C.3       9 UNK        -0.1966 
     27 N         -71.0532   30.1335  -76.1164 N.am      9 UNK        -0.4218 
     28 C         -70.8684   28.8052  -76.1155 C.2       9 UNK         0.5020 
     29 O         -69.9886   28.2421  -75.4619 O.2       9 UNK        -0.5274 
     30 CA        -71.8436   27.9702  -76.9742 C.3       8 UNK         0.0270 
     31 CB        -71.5682   26.4578  -76.8778 C.3       8 UNK        -0.1976 
     32 N         -73.2565   28.2066  -76.6570 N.am      8 UNK        -0.4313 
     33 C         -73.9621   29.3023  -76.9723 C.2       8 UNK         0.5041 
     34 O         -73.4637   30.2884  -77.5201 O.2       8 UNK        -0.5577 
     35 CA        -75.4569   29.3113  -76.5953 C.3       7 UNK         0.0284 
     36 CB        -76.2821   30.2914  -77.4548 C.3       7 UNK        -0.1958 
     37 N         -76.0794   27.9827  -76.5908 N.am      7 UNK        -0.4454 
     38 C         -76.1789   27.1059  -77.6021 C.2       7 UNK         0.5089 
     39 O         -75.7303   27.3021  -78.7324 O.2       7 UNK        -0.5125 
     40 CA        -76.9089   25.7827  -77.2820 C.3       6 UNK         0.0408 
     41 CB        -76.4805   24.6270  -78.2103 C.3       6 UNK        -0.1791 
     42 N         -76.8128   25.3779  -75.8702 N.am      6 UNK        -0.4762 
     43 C         -75.6850   25.1182  -75.1853 C.2       6 UNK         0.5007 
     44 O         -74.5605   25.1849  -75.6836 O.2       6 UNK        -0.5032 
     45 CA        -75.8043   24.8052  -73.6776 C.3       5 UNK         0.0783 
     46 C46       -75.2381   25.9980  -72.8680 C.3       11 UNK        -0.0857 
     47 S47       -75.3044   25.7948  -71.0453 S.3       11 UNK        -0.2512 
     48 C48       -76.6790   26.8663  -70.4697 C.3       11 UNK         0.0225 
     49 N         -77.1649   24.4518  -73.2596 N.am      5 UNK        -0.4615 
     50 C         -77.7609   23.2779  -73.5031 C.2       4 UNK         0.5053 
     51 O         -77.2511   22.3862  -74.1827 O.2       4 UNK        -0.5105 
     52 CA        -79.1378   23.0369  -72.8631 C.3       4 UNK         0.0263 
     53 CB        -79.6476   24.2044  -71.9932 C.3       4 UNK        -0.1981 
     54 N         -80.1071   22.7726  -73.9217 N.am      4 UNK        -0.4224 
     55 C         -80.7861   21.6295  -74.0914 C.2       3 UNK         0.4895 
     56 O         -80.6892   20.6596  -73.3376 O.2       3 UNK        -0.5091 
     57 CA        -81.7563   21.5376  -75.2868 C.3       3 UNK         0.0250 
     58 CB        -83.2144   21.5140  -74.7982 C.3       3 UNK        -0.1996 
     59 N         -81.5947   22.6296  -76.2497 N.am      3 UNK        -0.4254 
     60 C         -80.6353   22.6819  -77.1853 C.2       2 UNK         0.5004 
     61 O         -79.8437   21.7644  -77.4019 O.2       2 UNK        -0.5226 
     62 CA        -80.5186   23.9796  -78.0100 C.3       2 UNK         0.0269 
     63 CB        -81.1492   23.7924  -79.3993 C.3       2 UNK        -0.1926 
     64 N         -81.1008   25.1698  -77.3745 N.am      2 UNK        -0.4687 
     65 C         -80.7141   25.6787  -76.1964 C.2       1 UNK         0.5165 
     66 O         -79.8129   25.1878  -75.5092 O.2       1 UNK        -0.5079 
     67 H67       -82.8518   24.8306  -71.8998 H         1 UNK         0.0900 
     68 H68       -82.0700   26.4050  -71.7396 H         1 UNK         0.0900 
     69 H69       -83.8146   26.3050  -72.0010 H         1 UNK         0.0900 
     70 H70       -81.2808   27.3834  -73.6408 H         1 UNK         0.2959 
     71 H71       -82.4349   26.9537  -76.2161 H         1 UNK         0.1079 
     72 H72       -81.3511   29.0981  -75.6504 H         1 UNK         0.0837 
     73 H73       -80.6709   28.3866  -77.0790 H         1 UNK         0.0837 
     74 H74       -80.1906   29.2335  -73.3377 H         1 UNK         0.0685 
     75 H75       -79.4122   30.5193  -74.2385 H         1 UNK         0.0685 
     76 H76       -78.7824   27.5705  -72.0577 H         1 UNK         0.1434 
     77 H77       -74.9518   28.9151  -70.7405 H         1 UNK         0.1329 
     78 H78       -77.0758   31.0989  -73.7769 H         1 UNK         0.1335 
     79 H79       -75.1195   32.1208  -72.6172 H         1 UNK         0.0680 
     80 H80       -74.2085   30.8647  -73.4148 H         1 UNK         0.0680 
     81 H81       -73.0362   28.9749  -72.0073 H         1 UNK         0.1032 
     82 H82       -72.4790   29.1952  -70.3720 H         1 UNK         0.1032 
     83 H83       -70.6498   30.7414  -71.3048 H         1 UNK         0.0461 
     84 H84       -69.0434   27.2061  -72.3821 H         1 UNK         0.3453 
     85 H85       -69.8184   28.2243  -73.5711 H         1 UNK         0.3453 
     86 H86       -71.8963   30.0644  -73.8401 H         1 UNK         0.2984 
     87 H87       -70.7851   32.1026  -75.5734 H         1 UNK         0.0554 
     88 H88       -68.3192   32.1578  -75.7644 H         1 UNK         0.0847 
     89 H89       -69.0082   31.4796  -77.2278 H         1 UNK         0.0847 
     90 H90       -68.2637   30.4211  -76.0303 H         1 UNK         0.0847 
     91 H91       -71.8444   30.4696  -76.6662 H         1 UNK         0.3141 
     92 H92       -71.6779   28.2674  -78.0119 H         1 UNK         0.0743 
     93 H93       -70.5418   26.2253  -77.1650 H         1 UNK         0.0784 
     94 H94       -72.2243   25.8917  -77.5397 H         1 UNK         0.0784 
     95 H95       -71.7172   26.0853  -75.8632 H         1 UNK         0.0784 
     96 H96       -73.7462   27.4373  -76.2183 H         1 UNK         0.3213 
     97 H97       -75.4995   29.6661  -75.5648 H         1 UNK         0.0855 
     98 H98       -76.2451   30.0291  -78.5126 H         1 UNK         0.0814 
     99 H99       -75.9072   31.3110  -77.3586 H         1 UNK         0.0814 
    100 H100      -77.3280   30.3036  -77.1480 H         1 UNK         0.0814 
    101 H101      -76.5330   27.7205  -75.7260 H         1 UNK         0.3105 
    102 H102      -77.9644   25.9807  -77.4674 H         1 UNK         0.0547 
    103 H103      -76.9962   23.7007  -77.9573 H         1 UNK         0.0837 
    104 H104      -75.4080   24.4388  -78.1519 H         1 UNK         0.0837 
    105 H105      -76.7133   24.8541  -79.2513 H         1 UNK         0.0837 
    106 H106      -77.7016   25.3072  -75.3839 H         1 UNK         0.3020 
    107 H107      -75.1655   23.9389  -73.4897 H         1 UNK         0.1245 
    108 H108      -75.7200   26.9212  -73.1837 H         1 UNK         0.0781 
    109 H109      -74.1840   26.1378  -73.1168 H         1 UNK         0.0781 
    110 H110      -76.4972   27.1438  -69.4305 H         1 UNK         0.0836 
    111 H111      -77.5998   26.2828  -70.4662 H         1 UNK         0.0836 
    112 H112      -77.6458   25.1319  -72.6923 H         1 UNK         0.3022 
    113 H113      -79.0260   22.1640  -72.2171 H         1 UNK         0.0747 
    114 H114      -80.6085   23.9556  -71.5440 H         1 UNK         0.0793 
    115 H115      -78.9648   24.4119  -71.1689 H         1 UNK         0.0793 
    116 H116      -79.7789   25.1203  -72.5707 H         1 UNK         0.0793 
    117 H117      -80.1907   23.5057  -74.6201 H         1 UNK         0.3047 
    118 H118      -81.5553   20.5913  -75.7939 H         1 UNK         0.0822 
    119 H119      -83.9114   21.4106  -75.6300 H         1 UNK         0.0807 
    120 H120      -83.4730   22.4223  -74.2532 H         1 UNK         0.0807 
    121 H121      -83.3875   20.6724  -74.1260 H         1 UNK         0.0807 
    122 H122      -82.1991   23.4318  -76.1294 H         1 UNK         0.2946 
    123 H123      -79.4522   24.1674  -78.1438 H         1 UNK         0.1144 
    124 H124      -80.9790   24.6624  -80.0340 H         1 UNK         0.0793 
    125 H125      -82.2253   23.6265  -79.3350 H         1 UNK         0.0793 
    126 H126      -80.7170   22.9318  -79.9122 H         1 UNK         0.0793 
    127 H127      -81.8543   25.6187  -77.8760 H         1 UNK         0.2896 
@<TRIPOS>BOND
     1    1    2 1    
     2    1   67 1    
     3    1   68 1    
     4    1   69 1    
     5    2    3 2    
     6    2    4 am   BACKBONE|DICT|INTERRES
     7    4    5 1    
     8    4   70 1    
     9    5    6 1    
    10    5   65 1    
    11    5   71 1    
    12    6    7 1    
    13    6   72 1    
    14    6   73 1    
    15    7    8 1    
    16    8    9 1    
    17    8   74 1    
    18    8   75 1    
    19    9   10 ar   
    20    9   14 ar   
    21   10   11 ar   
    22   10   76 1    
    23   11   12 ar   
    24   11   48 1    
    25   12   13 ar   
    26   12   77 1    
    27   13   14 ar   
    28   13   15 1    
    29   14   78 1    
    30   15   16 1    
    31   15   79 1    
    32   15   80 1    
    33   16   17 1    
    34   17   18 1    
    35   17   81 1    
    36   17   82 1    
    37   18   19 1    
    38   18   22 1    
    39   18   83 1    
    40   19   20 am   BACKBONE|DICT|INTERRES
    41   19   21 2    
    42   20   84 1    
    43   20   85 1    
    44   22   23 am   BACKBONE|DICT|INTERRES
    45   22   86 1    
    46   23   24 2    
    47   23   25 1    
    48   25   26 1    
    49   25   27 1    
    50   25   87 1    
    51   26   88 1    
    52   26   89 1    
    53   26   90 1    
    54   27   28 am   BACKBONE|DICT|INTERRES
    55   27   91 1    
    56   28   29 2    
    57   28   30 1    
    58   30   31 1    
    59   30   32 1    
    60   30   92 1    
    61   31   93 1    
    62   31   94 1    
    63   31   95 1    
    64   32   33 am   BACKBONE|DICT|INTERRES
    65   32   96 1    
    66   33   34 2    
    67   33   35 1    
    68   35   36 1    
    69   35   37 1    
    70   35   97 1    
    71   36   98 1    
    72   36   99 1    
    73   36  100 1    
    74   37   38 am   BACKBONE|DICT|INTERRES
    75   37  101 1    
    76   38   39 2    
    77   38   40 1    
    78   40   41 1    
    79   40   42 1    
    80   40  102 1    
    81   41  103 1    
    82   41  104 1    
    83   41  105 1    
    84   42   43 am   BACKBONE|DICT|INTERRES
    85   42  106 1    
    86   43   44 2    
    87   43   45 1    
    88   45   46 1    
    89   45   49 1    
    90   45  107 1    
    91   46   47 1    
    92   46  108 1    
    93   46  109 1    
    94   47   48 1    
    95   48  110 1    
    96   48  111 1    
    97   49   50 am   BACKBONE|DICT|INTERRES
    98   49  112 1    
    99   50   51 2    
   100   50   52 1    
   101   52   53 1    
   102   52   54 1    
   103   52  113 1    
   104   53  114 1    
   105   53  115 1    
   106   53  116 1    
   107   54   55 am   BACKBONE|DICT|INTERRES
   108   54  117 1    
   109   55   56 2    
   110   55   57 1    
   111   57   58 1    
   112   57   59 1    
   113   57  118 1    
   114   58  119 1    
   115   58  120 1    
   116   58  121 1    
   117   59   60 am   BACKBONE|DICT|INTERRES
   118   59  122 1    
   119   60   61 2    
   120   60   62 1    
   121   62   63 1    
   122   62   64 1    
   123   62  123 1    
   124   63  124 1    
   125   63  125 1    
   126   63  126 1    
   127   64   65 am   BACKBONE|DICT|INTERRES
   128   64  127 1    
   129   65   66 2    
@<TRIPOS>SUBSTRUCTURE
     1 UNK         1 GROUP             0       ****    0 ROOT    
