@<TRIPOS>MOLECULE
3R135
127   129    1
SMALL
USER_CHARGES


@<TRIPOS>ATOM
      1 CA        -76.3395   21.2580  -72.4166 C.3       0 UNK        -0.1998 
      2 C         -76.9419   22.2674  -71.4506 C.2       0 UNK         0.4909 
      3 O         -77.3191   21.9039  -70.3367 O.2       0 UNK        -0.5240 
      4 N         -77.0378   23.5346  -71.8716 N.am      1 UNK        -0.4739 
      5 CA        -77.5778   24.6499  -71.0824 C.3       1 UNK         0.0864 
      6 C6        -77.0430   26.0091  -71.6050 C.3       11 UNK        -0.0881 
      7 S7        -77.4925   26.3589  -73.3426 S.3       11 UNK        -0.2682 
      8 C8        -78.8711   27.5271  -73.1330 C.3       11 UNK         0.0289 
      9 C9        -78.4509   28.9614  -73.4042 C.ar      11 UNK        -0.0687 
     10 C10       -78.5201   29.4647  -74.7056 C.ar      11 UNK        -0.0823 
     11 C11       -78.1867   30.7949  -74.9736 C.ar      11 UNK        -0.0830 
     12 C12       -77.7841   31.6238  -73.9208 C.ar      11 UNK        -0.1021 
     13 C13       -77.7248   31.1374  -72.6101 C.ar      11 UNK        -0.0753 
     14 C14       -78.0486   29.7996  -72.3595 C.ar      11 UNK        -0.0933 
     15 C15       -77.4005   32.0844  -71.4607 C.3       11 UNK         0.0166 
     16 S16       -75.6742   32.6642  -71.4713 S.3       11 UNK        -0.2615 
     17 C17       -74.8135   31.3517  -70.5359 C.3       11 UNK        -0.0865 
     18 CA        -73.5240   30.8640  -71.2572 C.3       10 UNK         0.0862 
     19 C         -72.6304   29.9562  -70.3544 C.2       10 UNK         0.5551 
     20 N         -71.9787   28.9237  -70.8783 N.am      10 UNK        -0.7319 
     21 O         -72.4912   30.2156  -69.1613 O.2       10 UNK        -0.5018 
     22 N         -73.7959   30.3290  -72.6010 N.am      10 UNK        -0.4509 
     23 C         -74.4997   29.2247  -72.8781 C.2       10 UNK         0.4899 
     24 O         -75.0215   28.5149  -72.0185 O.2       10 UNK        -0.4839 
     25 CA        -74.6150   28.8193  -74.3619 C.3       9 UNK         0.0222 
     26 CB        -73.8612   29.7586  -75.3304 C.3       9 UNK        -0.1966 
     27 N         -74.2071   27.4258  -74.5819 N.am      9 UNK        -0.4218 
     28 C         -73.0546   26.8579  -74.1914 C.2       9 UNK         0.5020 
     29 O         -72.1233   27.4648  -73.6575 O.2       9 UNK        -0.5274 
     30 CA        -72.9251   25.3498  -74.4321 C.3       8 UNK         0.0270 
     31 CB        -73.9267   24.5630  -73.5677 C.3       8 UNK        -0.1976 
     32 N         -73.1372   25.0199  -75.8411 N.am      8 UNK        -0.4313 
     33 C         -72.1550   24.8101  -76.7252 C.2       8 UNK         0.5041 
     34 O         -70.9580   24.9392  -76.4638 O.2       8 UNK        -0.5577 
     35 CA        -72.5607   24.3418  -78.1283 C.3       7 UNK         0.0284 
     36 CB        -73.0885   22.8963  -78.0942 C.3       7 UNK        -0.1958 
     37 N         -73.5578   25.2144  -78.7556 N.am      7 UNK        -0.4454 
     38 C         -73.4617   25.6774  -80.0118 C.2       7 UNK         0.5089 
     39 O         -72.4831   25.4845  -80.7352 O.2       7 UNK        -0.5125 
     40 CA        -74.6566   26.4557  -80.5995 C.3       6 UNK         0.0408 
     41 CB        -75.3437   25.6277  -81.6986 C.3       6 UNK        -0.1791 
     42 N         -75.6625   26.8431  -79.6102 N.am      6 UNK        -0.4762 
     43 C         -75.5310   27.8516  -78.7379 C.2       6 UNK         0.5007 
     44 O         -74.5479   28.5902  -78.7073 O.2       6 UNK        -0.5032 
     45 CA        -76.6771   28.0439  -77.7166 C.3       5 UNK         0.0783 
     46 C46       -77.6060   29.2181  -78.1193 C.3       11 UNK        -0.0857 
     47 S47       -76.9910   30.8227  -77.4968 S.3       11 UNK        -0.2512 
     48 C48       -78.3289   31.3586  -76.3823 C.3       11 UNK         0.0225 
     49 N         -77.4322   26.8074  -77.4616 N.am      5 UNK        -0.4615 
     50 C         -76.9207   25.7055  -76.8995 C.2       4 UNK         0.5053 
     51 O         -75.7480   25.6256  -76.5260 O.2       4 UNK        -0.5105 
     52 CA        -77.8587   24.4933  -76.7529 C.3       4 UNK         0.0263 
     53 CB        -77.1580   23.2904  -76.0925 C.3       4 UNK        -0.1981 
     54 N         -79.0692   24.8021  -75.9896 N.am      4 UNK        -0.4224 
     55 C         -80.1584   25.4318  -76.4525 C.2       3 UNK         0.4895 
     56 O         -80.2196   25.9273  -77.5789 O.2       3 UNK        -0.5091 
     57 CA        -81.3803   25.5136  -75.5162 C.3       3 UNK         0.0250 
     58 CB        -82.6879   25.1704  -76.2541 C.3       3 UNK        -0.1996 
     59 N         -81.2342   24.6303  -74.3529 N.am      3 UNK        -0.4254 
     60 C         -81.5797   24.9352  -73.0951 C.2       2 UNK         0.5004 
     61 O         -82.0973   26.0004  -72.7599 O.2       2 UNK        -0.5226 
     62 CA        -81.2434   23.8828  -72.0271 C.3       2 UNK         0.0269 
     63 CB        -81.7549   22.4785  -72.4004 C.3       2 UNK        -0.1926 
     64 N         -79.7949   23.8448  -71.8226 N.am      2 UNK        -0.4687 
     65 C         -79.1220   24.6511  -70.9878 C.2       1 UNK         0.5165 
     66 O         -79.6714   25.4029  -70.1812 O.2       1 UNK        -0.5079 
     67 H67       -77.0746   20.4943  -72.6684 H         1 UNK         0.0900 
     68 H68       -76.0043   21.7258  -73.3419 H         1 UNK         0.0900 
     69 H69       -75.4818   20.7669  -71.9578 H         1 UNK         0.0900 
     70 H70       -76.7090   23.7857  -72.7918 H         1 UNK         0.2959 
     71 H71       -77.2170   24.5336  -70.0578 H         1 UNK         0.1079 
     72 H72       -75.9540   26.0147  -71.5412 H         1 UNK         0.0837 
     73 H73       -77.3657   26.8307  -70.9629 H         1 UNK         0.0837 
     74 H74       -79.3096   27.4407  -72.1382 H         1 UNK         0.0685 
     75 H75       -79.6633   27.2497  -73.8260 H         1 UNK         0.0685 
     76 H76       -78.8526   28.8184  -75.5043 H         1 UNK         0.1434 
     77 H77       -77.5466   32.6616  -74.1120 H         1 UNK         0.1329 
     78 H78       -78.0113   29.4149  -71.3497 H         1 UNK         0.1335 
     79 H79       -77.6300   31.6276  -70.4967 H         1 UNK         0.0680 
     80 H80       -78.0524   32.9557  -71.5386 H         1 UNK         0.0680 
     81 H81       -75.4878   30.5141  -70.3520 H         1 UNK         0.1032 
     82 H82       -74.5732   31.7629  -69.5540 H         1 UNK         0.1032 
     83 H83       -72.9065   31.7460  -71.4302 H         1 UNK         0.0461 
     84 H84       -71.3944   28.3585  -70.2836 H         1 UNK         0.3453 
     85 H85       -72.0968   28.6736  -71.8526 H         1 UNK         0.3453 
     86 H86       -73.3792   30.8373  -73.3664 H         1 UNK         0.2984 
     87 H87       -75.6769   28.8727  -74.5994 H         1 UNK         0.0554 
     88 H88       -74.2475   30.7774  -75.2749 H         1 UNK         0.0847 
     89 H89       -73.9823   29.4369  -76.3620 H         1 UNK         0.0847 
     90 H90       -72.7900   29.7876  -75.1269 H         1 UNK         0.0847 
     91 H91       -74.9106   26.8222  -74.9911 H         1 UNK         0.3141 
     92 H92       -71.9210   25.0498  -74.1238 H         1 UNK         0.0743 
     93 H93       -73.8198   24.8199  -72.5129 H         1 UNK         0.0784 
     94 H94       -74.9578   24.7698  -73.8524 H         1 UNK         0.0784 
     95 H95       -73.7655   23.4888  -73.6581 H         1 UNK         0.0784 
     96 H96       -74.1063   24.9871  -76.1499 H         1 UNK         0.3213 
     97 H97       -71.6424   24.3383  -78.7199 H         1 UNK         0.0855 
     98 H98       -74.0236   22.8170  -77.5400 H         1 UNK         0.0814 
     99 H99       -72.3690   22.2284  -77.6185 H         1 UNK         0.0814 
    100 H100      -73.2641   22.5171  -79.1010 H         1 UNK         0.0814 
    101 H101      -74.3727   25.4590  -78.2074 H         1 UNK         0.3105 
    102 H102      -74.2578   27.3621  -81.0601 H         1 UNK         0.0547 
    103 H103      -76.1498   26.1872  -82.1735 H         1 UNK         0.0837 
    104 H104      -74.6369   25.3563  -82.4841 H         1 UNK         0.0837 
    105 H105      -75.7624   24.7008  -81.3048 H         1 UNK         0.0837 
    106 H106      -76.5059   26.2887  -79.5758 H         1 UNK         0.3020 
    107 H107      -76.1990   28.2955  -76.7696 H         1 UNK         0.1245 
    108 H108      -78.6148   29.0576  -77.7393 H         1 UNK         0.0781 
    109 H109      -77.7253   29.2831  -79.2029 H         1 UNK         0.0781 
    110 H110      -79.3000   31.0866  -76.7983 H         1 UNK         0.0836 
    111 H111      -78.3210   32.4491  -76.3477 H         1 UNK         0.0836 
    112 H112      -78.4096   26.7863  -77.7362 H         1 UNK         0.3022 
    113 H113      -78.1512   24.1931  -77.7613 H         1 UNK         0.0747 
    114 H114      -77.8220   22.4282  -76.0289 H         1 UNK         0.0793 
    115 H115      -76.2869   22.9795  -76.6697 H         1 UNK         0.0793 
    116 H116      -76.8147   23.5262  -75.0855 H         1 UNK         0.0793 
    117 H117      -79.0554   24.5362  -75.0176 H         1 UNK         0.3047 
    118 H118      -81.4410   26.5525  -75.1867 H         1 UNK         0.0822 
    119 H119      -83.5513   25.2710  -75.5962 H         1 UNK         0.0807 
    120 H120      -82.6766   24.1499  -76.6386 H         1 UNK         0.0807 
    121 H121      -82.8509   25.8381  -77.1011 H         1 UNK         0.0807 
    122 H122      -80.8607   23.7105  -74.5398 H         1 UNK         0.2946 
    123 H123      -81.7397   24.1830  -71.1008 H         1 UNK         0.1144 
    124 H124      -81.6157   21.7821  -71.5732 H         1 UNK         0.0793 
    125 H125      -81.2433   22.0618  -73.2683 H         1 UNK         0.0793 
    126 H126      -82.8221   22.4991  -72.6258 H         1 UNK         0.0793 
    127 H127      -79.2555   23.2454  -72.4285 H         1 UNK         0.2896 
@<TRIPOS>BOND
     1    1    2 1    
     2    1   67 1    
     3    1   68 1    
     4    1   69 1    
     5    2    3 2    
     6    2    4 am   BACKBONE|DICT|INTERRES
     7    4    5 1    
     8    4   70 1    
     9    5    6 1    
    10    5   65 1    
    11    5   71 1    
    12    6    7 1    
    13    6   72 1    
    14    6   73 1    
    15    7    8 1    
    16    8    9 1    
    17    8   74 1    
    18    8   75 1    
    19    9   10 ar   
    20    9   14 ar   
    21   10   11 ar   
    22   10   76 1    
    23   11   12 ar   
    24   11   48 1    
    25   12   13 ar   
    26   12   77 1    
    27   13   14 ar   
    28   13   15 1    
    29   14   78 1    
    30   15   16 1    
    31   15   79 1    
    32   15   80 1    
    33   16   17 1    
    34   17   18 1    
    35   17   81 1    
    36   17   82 1    
    37   18   19 1    
    38   18   22 1    
    39   18   83 1    
    40   19   20 am   BACKBONE|DICT|INTERRES
    41   19   21 2    
    42   20   84 1    
    43   20   85 1    
    44   22   23 am   BACKBONE|DICT|INTERRES
    45   22   86 1    
    46   23   24 2    
    47   23   25 1    
    48   25   26 1    
    49   25   27 1    
    50   25   87 1    
    51   26   88 1    
    52   26   89 1    
    53   26   90 1    
    54   27   28 am   BACKBONE|DICT|INTERRES
    55   27   91 1    
    56   28   29 2    
    57   28   30 1    
    58   30   31 1    
    59   30   32 1    
    60   30   92 1    
    61   31   93 1    
    62   31   94 1    
    63   31   95 1    
    64   32   33 am   BACKBONE|DICT|INTERRES
    65   32   96 1    
    66   33   34 2    
    67   33   35 1    
    68   35   36 1    
    69   35   37 1    
    70   35   97 1    
    71   36   98 1    
    72   36   99 1    
    73   36  100 1    
    74   37   38 am   BACKBONE|DICT|INTERRES
    75   37  101 1    
    76   38   39 2    
    77   38   40 1    
    78   40   41 1    
    79   40   42 1    
    80   40  102 1    
    81   41  103 1    
    82   41  104 1    
    83   41  105 1    
    84   42   43 am   BACKBONE|DICT|INTERRES
    85   42  106 1    
    86   43   44 2    
    87   43   45 1    
    88   45   46 1    
    89   45   49 1    
    90   45  107 1    
    91   46   47 1    
    92   46  108 1    
    93   46  109 1    
    94   47   48 1    
    95   48  110 1    
    96   48  111 1    
    97   49   50 am   BACKBONE|DICT|INTERRES
    98   49  112 1    
    99   50   51 2    
   100   50   52 1    
   101   52   53 1    
   102   52   54 1    
   103   52  113 1    
   104   53  114 1    
   105   53  115 1    
   106   53  116 1    
   107   54   55 am   BACKBONE|DICT|INTERRES
   108   54  117 1    
   109   55   56 2    
   110   55   57 1    
   111   57   58 1    
   112   57   59 1    
   113   57  118 1    
   114   58  119 1    
   115   58  120 1    
   116   58  121 1    
   117   59   60 am   BACKBONE|DICT|INTERRES
   118   59  122 1    
   119   60   61 2    
   120   60   62 1    
   121   62   63 1    
   122   62   64 1    
   123   62  123 1    
   124   63  124 1    
   125   63  125 1    
   126   63  126 1    
   127   64   65 am   BACKBONE|DICT|INTERRES
   128   64  127 1    
   129   65   66 2    
@<TRIPOS>SUBSTRUCTURE
     1 UNK         1 GROUP             0       ****    0 ROOT    
