@<TRIPOS>MOLECULE
3R135
127   129    1
SMALL
USER_CHARGES


@<TRIPOS>ATOM
      1 CA        -82.1168   22.1664  -72.5663 C.3       0 UNK        -0.1998 
      2 C         -81.5008   23.5549  -72.6462 C.2       0 UNK         0.4909 
      3 O         -80.2917   23.6739  -72.8398 O.2       0 UNK        -0.5240 
      4 N         -82.3291   24.6001  -72.5093 N.am      1 UNK        -0.4739 
      5 CA        -81.9557   26.0211  -72.5273 C.3       1 UNK         0.0864 
      6 C6        -81.1490   26.4397  -71.2649 C.3       11 UNK        -0.0881 
      7 S7        -81.5418   28.1467  -70.7599 S.3       11 UNK        -0.2682 
      8 C8        -80.0200   28.6345  -69.8790 C.3       11 UNK         0.0289 
      9 C9        -78.8228   28.9342  -70.7803 C.ar      11 UNK        -0.0687 
     10 C10       -78.9772   29.5315  -72.0380 C.ar      11 UNK        -0.0823 
     11 C11       -77.8653   29.8359  -72.8312 C.ar      11 UNK        -0.0830 
     12 C12       -76.5863   29.5602  -72.3447 C.ar      11 UNK        -0.1021 
     13 C13       -76.4130   28.9807  -71.0846 C.ar      11 UNK        -0.0753 
     14 C14       -77.5333   28.6627  -70.3120 C.ar      11 UNK        -0.0933 
     15 C15       -75.0116   28.7236  -70.5566 C.3       11 UNK         0.0166 
     16 S16       -74.2373   30.2775  -70.0058 S.3       11 UNK        -0.2615 
     17 C17       -72.4598   29.8747  -70.1273 C.3       11 UNK        -0.0865 
     18 CA        -71.7682   30.5733  -71.3381 C.3       10 UNK         0.0862 
     19 C         -70.2157   30.4166  -71.3111 C.2       10 UNK         0.5551 
     20 N         -69.5430   30.2764  -72.4470 N.am      10 UNK        -0.7319 
     21 O         -69.6045   30.4592  -70.2459 O.2       10 UNK        -0.5018 
     22 N         -72.4069   30.2565  -72.6314 N.am      10 UNK        -0.4509 
     23 C         -72.4774   29.0440  -73.1951 C.2       10 UNK         0.4899 
     24 O         -71.9790   28.0313  -72.6986 O.2       10 UNK        -0.4839 
     25 CA        -73.2946   28.9243  -74.4978 C.3       9 UNK         0.0222 
     26 CB        -73.3637   30.2221  -75.3350 C.3       9 UNK        -0.1966 
     27 N         -72.8635   27.7782  -75.3008 N.am      9 UNK        -0.4218 
     28 C         -71.6645   27.6143  -75.8783 C.2       9 UNK         0.5020 
     29 O         -70.8122   28.5015  -75.9535 O.2       9 UNK        -0.5274 
     30 CA        -71.3184   26.2245  -76.4290 C.3       8 UNK         0.0270 
     31 CB        -70.4689   25.4578  -75.3928 C.3       8 UNK        -0.1976 
     32 N         -72.4873   25.4275  -76.8218 N.am      8 UNK        -0.4313 
     33 C         -72.4122   24.3484  -77.6120 C.2       8 UNK         0.5041 
     34 O         -71.3684   23.9430  -78.1272 O.2       8 UNK        -0.5577 
     35 CA        -73.7123   23.5725  -77.8645 C.3       7 UNK         0.0284 
     36 CB        -74.0346   22.6665  -76.6646 C.3       7 UNK        -0.1958 
     37 N         -74.8596   24.4304  -78.1662 N.am      7 UNK        -0.4454 
     38 C         -74.9839   25.1693  -79.2779 C.2       7 UNK         0.5089 
     39 O         -74.1263   25.2354  -80.1593 O.2       7 UNK        -0.5125 
     40 CA        -76.2939   25.9561  -79.4512 C.3       6 UNK         0.0408 
     41 CB        -77.3977   25.0478  -80.0157 C.3       6 UNK        -0.1791 
     42 N         -76.7642   26.5803  -78.2148 N.am      6 UNK        -0.4762 
     43 C         -76.1492   27.5931  -77.5861 C.2       6 UNK         0.5007 
     44 O         -75.1107   28.1221  -77.9820 O.2       6 UNK        -0.5032 
     45 CA        -76.8138   28.0902  -76.2864 C.3       5 UNK         0.0783 
     46 C46       -78.0009   29.0245  -76.6492 C.3       11 UNK        -0.0857 
     47 S47       -79.1066   29.5099  -75.2861 S.3       11 UNK        -0.2512 
     48 C48       -78.0467   30.5028  -74.1897 C.3       11 UNK         0.0225 
     49 N         -77.1682   26.9766  -75.3962 N.am      5 UNK        -0.4615 
     50 C         -76.2966   26.0757  -74.9113 C.2       4 UNK         0.5053 
     51 O         -75.0831   26.0921  -75.1340 O.2       4 UNK        -0.5105 
     52 CA        -76.8828   24.9205  -74.0862 C.3       4 UNK         0.0263 
     53 CB        -77.1918   25.3795  -72.6518 C.3       4 UNK        -0.1981 
     54 N         -78.0767   24.3424  -74.7107 N.am      4 UNK        -0.4224 
     55 C         -78.0847   23.7554  -75.9189 C.2       3 UNK         0.4895 
     56 O         -77.0776   23.5829  -76.6021 O.2       3 UNK        -0.5091 
     57 CA        -79.4442   23.3405  -76.5006 C.3       3 UNK         0.0250 
     58 CB        -79.8883   21.9747  -75.9545 C.3       3 UNK        -0.1996 
     59 N         -80.4777   24.3478  -76.2624 N.am      3 UNK        -0.4254 
     60 C         -80.4627   25.5829  -76.7867 C.2       2 UNK         0.5004 
     61 O         -79.6085   25.9807  -77.5798 O.2       2 UNK        -0.5226 
     62 CA        -81.5707   26.5459  -76.3260 C.3       2 UNK         0.0269 
     63 CB        -82.7601   26.5030  -77.2981 C.3       2 UNK        -0.1926 
     64 N         -82.0441   26.2848  -74.9610 N.am      2 UNK        -0.4687 
     65 C         -81.2829   26.4087  -73.8630 C.2       1 UNK         0.5165 
     66 O         -80.0969   26.7346  -73.9008 O.2       1 UNK        -0.5079 
     67 H67       -83.1586   22.2005  -72.2484 H         1 UNK         0.0900 
     68 H68       -81.5668   21.5540  -71.8525 H         1 UNK         0.0900 
     69 H69       -82.0739   21.6777  -73.5388 H         1 UNK         0.0900 
     70 H70       -83.3142   24.4209  -72.3693 H         1 UNK         0.2959 
     71 H71       -82.9068   26.5563  -72.5070 H         1 UNK         0.1079 
     72 H72       -81.4114   25.7990  -70.4216 H         1 UNK         0.0837 
     73 H73       -80.0735   26.3123  -71.4016 H         1 UNK         0.0837 
     74 H74       -80.2352   29.5302  -69.2951 H         1 UNK         0.0685 
     75 H75       -79.7708   27.8516  -69.1608 H         1 UNK         0.0685 
     76 H76       -79.9658   29.7635  -72.4084 H         1 UNK         0.1434 
     77 H77       -75.7204   29.8281  -72.9302 H         1 UNK         0.1329 
     78 H78       -77.3990   28.2233  -69.3330 H         1 UNK         0.1335 
     79 H79       -74.4198   28.2523  -71.3395 H         1 UNK         0.0680 
     80 H80       -75.0309   28.0189  -69.7239 H         1 UNK         0.0680 
     81 H81       -72.3189   28.7935  -70.1666 H         1 UNK         0.1032 
     82 H82       -71.9985   30.1965  -69.1919 H         1 UNK         0.1032 
     83 H83       -71.9236   31.6452  -71.2104 H         1 UNK         0.0461 
     84 H84       -68.5395   30.1885  -72.4204 H         1 UNK         0.3453 
     85 H85       -70.0327   30.2285  -73.3265 H         1 UNK         0.3453 
     86 H86       -72.8325   31.0384  -73.1069 H         1 UNK         0.2984 
     87 H87       -74.3074   28.6748  -74.1871 H         1 UNK         0.0554 
     88 H88       -73.9250   31.0012  -74.8186 H         1 UNK         0.0847 
     89 H89       -73.8662   30.0499  -76.2869 H         1 UNK         0.0847 
     90 H90       -72.3723   30.6196  -75.5553 H         1 UNK         0.0847 
     91 H91       -73.5029   26.9898  -75.2432 H         1 UNK         0.3141 
     92 H92       -70.7095   26.3920  -77.3202 H         1 UNK         0.0743 
     93 H93       -71.0505   25.2136  -74.5029 H         1 UNK         0.0784 
     94 H94       -70.0724   24.5281  -75.8003 H         1 UNK         0.0784 
     95 H95       -69.6136   26.0528  -75.0688 H         1 UNK         0.0784 
     96 H96       -73.3959   25.7026  -76.4679 H         1 UNK         0.3213 
     97 H97       -73.5453   22.9303  -78.7321 H         1 UNK         0.0855 
     98 H98       -74.2910   23.2470  -75.7774 H         1 UNK         0.0814 
     99 H99       -73.1824   22.0354  -76.4088 H         1 UNK         0.0814 
    100 H100      -74.8715   22.0034  -76.8837 H         1 UNK         0.0814 
    101 H101      -75.6500   24.3732  -77.5268 H         1 UNK         0.3105 
    102 H102      -76.1095   26.7521  -80.1757 H         1 UNK         0.0547 
    103 H103      -77.0850   24.5890  -80.9545 H         1 UNK         0.0837 
    104 H104      -77.6493   24.2419  -79.3254 H         1 UNK         0.0837 
    105 H105      -78.3097   25.6102  -80.2169 H         1 UNK         0.0837 
    106 H106      -77.6423   26.2355  -77.8349 H         1 UNK         0.3020 
    107 H107      -76.0707   28.6861  -75.7563 H         1 UNK         0.1245 
    108 H108      -77.6278   29.9353  -77.1215 H         1 UNK         0.0781 
    109 H109      -78.6436   28.5507  -77.3940 H         1 UNK         0.0781 
    110 H110      -77.0855   30.6950  -74.6680 H         1 UNK         0.0836 
    111 H111      -78.5132   31.4776  -74.0419 H         1 UNK         0.0836 
    112 H112      -78.1439   26.9043  -75.1299 H         1 UNK         0.3022 
    113 H113      -76.1291   24.1323  -74.0339 H         1 UNK         0.0747 
    114 H114      -77.6165   24.5710  -72.0566 H         1 UNK         0.0793 
    115 H115      -76.2844   25.7151  -72.1481 H         1 UNK         0.0793 
    116 H116      -77.8937   26.2135  -72.6323 H         1 UNK         0.0793 
    117 H117      -78.9464   24.4181  -74.1906 H         1 UNK         0.3047 
    118 H118      -79.3243   23.2453  -77.5820 H         1 UNK         0.0822 
    119 H119      -80.8493   21.6710  -76.3697 H         1 UNK         0.0807 
    120 H120      -79.9735   21.9775  -74.8685 H         1 UNK         0.0807 
    121 H121      -79.1641   21.2023  -76.2169 H         1 UNK         0.0807 
    122 H122      -81.2033   24.1185  -75.6000 H         1 UNK         0.2946 
    123 H123      -81.1474   27.5525  -76.3458 H         1 UNK         0.1144 
    124 H124      -82.4365   26.7155  -78.3182 H         1 UNK         0.0793 
    125 H125      -83.5126   27.2476  -77.0378 H         1 UNK         0.0793 
    126 H126      -83.2418   25.5245  -77.3060 H         1 UNK         0.0793 
    127 H127      -83.0028   25.9835  -74.8593 H         1 UNK         0.2896 
@<TRIPOS>BOND
     1    1    2 1    
     2    1   67 1    
     3    1   68 1    
     4    1   69 1    
     5    2    3 2    
     6    2    4 am   BACKBONE|DICT|INTERRES
     7    4    5 1    
     8    4   70 1    
     9    5    6 1    
    10    5   65 1    
    11    5   71 1    
    12    6    7 1    
    13    6   72 1    
    14    6   73 1    
    15    7    8 1    
    16    8    9 1    
    17    8   74 1    
    18    8   75 1    
    19    9   10 ar   
    20    9   14 ar   
    21   10   11 ar   
    22   10   76 1    
    23   11   12 ar   
    24   11   48 1    
    25   12   13 ar   
    26   12   77 1    
    27   13   14 ar   
    28   13   15 1    
    29   14   78 1    
    30   15   16 1    
    31   15   79 1    
    32   15   80 1    
    33   16   17 1    
    34   17   18 1    
    35   17   81 1    
    36   17   82 1    
    37   18   19 1    
    38   18   22 1    
    39   18   83 1    
    40   19   20 am   BACKBONE|DICT|INTERRES
    41   19   21 2    
    42   20   84 1    
    43   20   85 1    
    44   22   23 am   BACKBONE|DICT|INTERRES
    45   22   86 1    
    46   23   24 2    
    47   23   25 1    
    48   25   26 1    
    49   25   27 1    
    50   25   87 1    
    51   26   88 1    
    52   26   89 1    
    53   26   90 1    
    54   27   28 am   BACKBONE|DICT|INTERRES
    55   27   91 1    
    56   28   29 2    
    57   28   30 1    
    58   30   31 1    
    59   30   32 1    
    60   30   92 1    
    61   31   93 1    
    62   31   94 1    
    63   31   95 1    
    64   32   33 am   BACKBONE|DICT|INTERRES
    65   32   96 1    
    66   33   34 2    
    67   33   35 1    
    68   35   36 1    
    69   35   37 1    
    70   35   97 1    
    71   36   98 1    
    72   36   99 1    
    73   36  100 1    
    74   37   38 am   BACKBONE|DICT|INTERRES
    75   37  101 1    
    76   38   39 2    
    77   38   40 1    
    78   40   41 1    
    79   40   42 1    
    80   40  102 1    
    81   41  103 1    
    82   41  104 1    
    83   41  105 1    
    84   42   43 am   BACKBONE|DICT|INTERRES
    85   42  106 1    
    86   43   44 2    
    87   43   45 1    
    88   45   46 1    
    89   45   49 1    
    90   45  107 1    
    91   46   47 1    
    92   46  108 1    
    93   46  109 1    
    94   47   48 1    
    95   48  110 1    
    96   48  111 1    
    97   49   50 am   BACKBONE|DICT|INTERRES
    98   49  112 1    
    99   50   51 2    
   100   50   52 1    
   101   52   53 1    
   102   52   54 1    
   103   52  113 1    
   104   53  114 1    
   105   53  115 1    
   106   53  116 1    
   107   54   55 am   BACKBONE|DICT|INTERRES
   108   54  117 1    
   109   55   56 2    
   110   55   57 1    
   111   57   58 1    
   112   57   59 1    
   113   57  118 1    
   114   58  119 1    
   115   58  120 1    
   116   58  121 1    
   117   59   60 am   BACKBONE|DICT|INTERRES
   118   59  122 1    
   119   60   61 2    
   120   60   62 1    
   121   62   63 1    
   122   62   64 1    
   123   62  123 1    
   124   63  124 1    
   125   63  125 1    
   126   63  126 1    
   127   64   65 am   BACKBONE|DICT|INTERRES
   128   64  127 1    
   129   65   66 2    
@<TRIPOS>SUBSTRUCTURE
     1 UNK         1 GROUP             0       ****    0 ROOT    
