@<TRIPOS>MOLECULE
3R135
127   129    1
SMALL
USER_CHARGES


@<TRIPOS>ATOM
      1 CA        -83.6836   23.6246  -73.6239 C.3       0 UNK        -0.1998 
      2 C         -82.7478   24.8102  -73.4501 C.2       0 UNK         0.4909 
      3 O         -81.7019   24.8612  -74.0970 O.2       0 UNK        -0.5240 
      4 N         -83.1157   25.7685  -72.5890 N.am      1 UNK        -0.4739 
      5 CA        -82.3560   26.9840  -72.2689 C.3       1 UNK         0.0864 
      6 C6        -81.0840   26.6766  -71.4158 C.3       11 UNK        -0.0881 
      7 S7        -80.7827   27.9370  -70.1282 S.3       11 UNK        -0.2682 
      8 C8        -79.5030   29.0165  -70.8622 C.3       11 UNK         0.0289 
      9 C9        -78.0546   28.5388  -70.7294 C.ar      11 UNK        -0.0687 
     10 C10       -77.7051   27.1960  -70.5293 C.ar      11 UNK        -0.0823 
     11 C11       -76.3626   26.8122  -70.4452 C.ar      11 UNK        -0.0830 
     12 C12       -75.3605   27.7803  -70.5433 C.ar      11 UNK        -0.1021 
     13 C13       -75.6905   29.1227  -70.7350 C.ar      11 UNK        -0.0753 
     14 C14       -77.0353   29.4922  -70.8322 C.ar      11 UNK        -0.0933 
     15 C15       -74.5916   30.1728  -70.8174 C.3       11 UNK         0.0166 
     16 S16       -73.6758   30.0947  -72.3888 S.3       11 UNK        -0.2615 
     17 C17       -74.9541   30.5899  -73.5951 C.3       11 UNK        -0.0865 
     18 CA        -75.2730   29.4621  -74.6212 C.3       10 UNK         0.0862 
     19 C         -76.5389   29.7602  -75.4799 C.2       10 UNK         0.5551 
     20 N         -76.7002   29.1315  -76.6381 N.am      10 UNK        -0.7319 
     21 O         -77.3941   30.5511  -75.0908 O.2       10 UNK        -0.5018 
     22 N         -74.0968   29.0577  -75.4139 N.am      10 UNK        -0.4509 
     23 C         -73.4161   29.8420  -76.2653 C.2       10 UNK         0.4899 
     24 O         -73.7196   31.0102  -76.5137 O.2       10 UNK        -0.4839 
     25 CA        -72.1970   29.2128  -76.9706 C.3       9 UNK         0.0222 
     26 CB        -71.1923   30.2595  -77.4981 C.3       9 UNK        -0.1966 
     27 N         -71.5274   28.1943  -76.1554 N.am      9 UNK        -0.4218 
     28 C         -70.9076   28.3551  -74.9742 C.2       9 UNK         0.5020 
     29 O         -70.6835   29.4505  -74.4585 O.2       9 UNK        -0.5274 
     30 CA        -70.4841   27.0790  -74.2198 C.3       8 UNK         0.0270 
     31 CB        -71.2267   26.9815  -72.8742 C.3       8 UNK        -0.1976 
     32 N         -70.7561   25.8639  -74.9929 N.am      8 UNK        -0.4313 
     33 C         -69.8760   25.2506  -75.7968 C.2       8 UNK         0.5041 
     34 O         -68.6954   25.5843  -75.9012 O.2       8 UNK        -0.5577 
     35 CA        -70.4045   24.0821  -76.6525 C.3       7 UNK         0.0284 
     36 CB        -70.1538   22.7413  -75.9436 C.3       7 UNK        -0.1958 
     37 N         -71.8291   24.1958  -76.9853 N.am      7 UNK        -0.4454 
     38 C         -72.3657   25.1613  -77.7460 C.2       7 UNK         0.5089 
     39 O         -71.7050   26.0369  -78.3018 O.2       7 UNK        -0.5125 
     40 CA        -73.9012   25.2067  -77.8443 C.3       6 UNK         0.0408 
     41 CB        -74.3844   24.4630  -79.0983 C.3       6 UNK        -0.1791 
     42 N         -74.5851   24.6686  -76.6633 N.am      6 UNK        -0.4762 
     43 C         -74.4890   25.1569  -75.4164 C.2       6 UNK         0.5007 
     44 O         -73.7863   26.1286  -75.1282 O.2       6 UNK        -0.5032 
     45 CA        -75.2693   24.4023  -74.3174 C.3       5 UNK         0.0783 
     46 C46       -75.5016   25.2629  -73.0446 C.3       11 UNK        -0.0857 
     47 S47       -76.3831   24.3502  -71.7300 S.3       11 UNK        -0.2512 
     48 C48       -75.9898   25.3483  -70.2588 C.3       11 UNK         0.0225 
     49 N         -76.4854   23.7612  -74.8434 N.am      5 UNK        -0.4615 
     50 C         -77.6028   24.3839  -75.2417 C.2       4 UNK         0.5053 
     51 O         -77.7433   25.6096  -75.2529 O.2       4 UNK        -0.5105 
     52 CA        -78.7544   23.4587  -75.6775 C.3       4 UNK         0.0263 
     53 CB        -79.2162   22.5650  -74.5110 C.3       4 UNK        -0.1981 
     54 N         -79.8997   24.2408  -76.1300 N.am      4 UNK        -0.4224 
     55 C         -80.0767   24.7332  -77.3622 C.2       3 UNK         0.4895 
     56 O         -79.3673   24.4526  -78.3290 O.2       3 UNK        -0.5091 
     57 CA        -81.2269   25.7382  -77.5246 C.3       3 UNK         0.0250 
     58 CB        -82.5890   25.0247  -77.5457 C.3       3 UNK        -0.1996 
     59 N         -81.1894   26.7082  -76.4281 N.am      3 UNK        -0.4254 
     60 C         -80.5274   27.8724  -76.4726 C.2       2 UNK         0.5004 
     61 O         -80.0323   28.3318  -77.5034 O.2       2 UNK        -0.5226 
     62 CA        -80.3332   28.6467  -75.1549 C.3       2 UNK         0.0269 
     63 CB        -80.8209   30.1073  -75.2540 C.3       2 UNK        -0.1926 
     64 N         -80.8489   27.9715  -73.9572 N.am      2 UNK        -0.4687 
     65 C         -82.1167   27.8271  -73.5460 C.2       1 UNK         0.5165 
     66 O         -83.0903   28.2849  -74.1461 O.2       1 UNK        -0.5079 
     67 H67       -84.5156   23.6558  -72.9209 H         1 UNK         0.0900 
     68 H68       -84.0913   23.6124  -74.6341 H         1 UNK         0.0900 
     69 H69       -83.1400   22.6938  -73.4643 H         1 UNK         0.0900 
     70 H70       -84.0065   25.6860  -72.1185 H         1 UNK         0.2959 
     71 H71       -83.0364   27.5788  -71.6568 H         1 UNK         0.1079 
     72 H72       -80.1911   26.4843  -72.0108 H         1 UNK         0.0837 
     73 H73       -81.2394   25.7465  -70.8666 H         1 UNK         0.0837 
     74 H74       -79.5929   29.9837  -70.3650 H         1 UNK         0.0685 
     75 H75       -79.7242   29.2050  -71.9112 H         1 UNK         0.0685 
     76 H76       -78.4656   26.4339  -70.4483 H         1 UNK         0.1434 
     77 H77       -74.3198   27.4926  -70.4787 H         1 UNK         0.1329 
     78 H78       -77.2915   30.5318  -70.9854 H         1 UNK         0.1335 
     79 H79       -74.9993   31.1765  -70.6865 H         1 UNK         0.0680 
     80 H80       -73.8898   30.0212  -69.9960 H         1 UNK         0.0680 
     81 H81       -75.8549   30.8792  -73.0532 H         1 UNK         0.1032 
     82 H82       -74.6214   31.4952  -74.1040 H         1 UNK         0.1032 
     83 H83       -75.5464   28.5791  -74.0420 H         1 UNK         0.0461 
     84 H84       -77.5293   29.3047  -77.1851 H         1 UNK         0.3453 
     85 H85       -76.0138   28.4678  -76.9561 H         1 UNK         0.3453 
     86 H86       -73.8012   28.0945  -75.2882 H         1 UNK         0.2984 
     87 H87       -72.5973   28.6833  -77.8362 H         1 UNK         0.0554 
     88 H88       -71.6621   30.9179  -78.2298 H         1 UNK         0.0847 
     89 H89       -70.3448   29.7830  -77.9908 H         1 UNK         0.0847 
     90 H90       -70.8052   30.8906  -76.6976 H         1 UNK         0.0847 
     91 H91       -71.6047   27.2522  -76.5166 H         1 UNK         0.3141 
     92 H92       -69.4146   27.1581  -74.0145 H         1 UNK         0.0743 
     93 H93       -70.9992   27.8395  -72.2401 H         1 UNK         0.0784 
     94 H94       -72.3088   26.9608  -73.0084 H         1 UNK         0.0784 
     95 H95       -70.9377   26.0866  -72.3230 H         1 UNK         0.0784 
     96 H96       -71.7185   25.5479  -74.9881 H         1 UNK         0.3213 
     97 H97       -69.8428   24.0849  -77.5894 H         1 UNK         0.0855 
     98 H98       -70.7061   22.6687  -75.0058 H         1 UNK         0.0814 
     99 H99       -69.0957   22.6175  -75.7080 H         1 UNK         0.0814 
    100 H100      -70.4433   21.8987  -76.5719 H         1 UNK         0.0814 
    101 H101      -72.4507   23.5112  -76.5798 H         1 UNK         0.3105 
    102 H102      -74.1895   26.2557  -77.9390 H         1 UNK         0.0547 
    103 H103      -73.9115   24.8640  -79.9959 H         1 UNK         0.0837 
    104 H104      -74.1497   23.3989  -79.0546 H         1 UNK         0.0837 
    105 H105      -75.4618   24.5651  -79.2303 H         1 UNK         0.0837 
    106 H106      -75.1909   23.8747  -76.8139 H         1 UNK         0.3020 
    107 H107      -74.6108   23.5837  -74.0227 H         1 UNK         0.1245 
    108 H108      -76.0696   26.1641  -73.2816 H         1 UNK         0.0781 
    109 H109      -74.5465   25.6044  -72.6408 H         1 UNK         0.0781 
    110 H110      -76.5279   24.9442  -69.4003 H         1 UNK         0.0836 
    111 H111      -74.9278   25.2422  -70.0315 H         1 UNK         0.0836 
    112 H112      -76.4717   22.7512  -74.8520 H         1 UNK         0.3022 
    113 H113      -78.4021   22.8259  -76.4946 H         1 UNK         0.0747 
    114 H114      -78.4311   21.8773  -74.1960 H         1 UNK         0.0793 
    115 H115      -80.0775   21.9591  -74.7934 H         1 UNK         0.0793 
    116 H116      -79.4989   23.1579  -73.6397 H         1 UNK         0.0793 
    117 H117      -80.5379   24.5377  -75.3931 H         1 UNK         0.3047 
    118 H118      -81.0998   26.2501  -78.4811 H         1 UNK         0.0822 
    119 H119      -83.4054   25.7364  -77.6690 H         1 UNK         0.0807 
    120 H120      -82.7712   24.4622  -76.6302 H         1 UNK         0.0807 
    121 H121      -82.6442   24.3200  -78.3764 H         1 UNK         0.0807 
    122 H122      -81.5280   26.3868  -75.5288 H         1 UNK         0.2946 
    123 H123      -79.2537   28.6761  -75.0087 H         1 UNK         0.1144 
    124 H124      -80.2831   30.6409  -76.0387 H         1 UNK         0.0793 
    125 H125      -80.6470   30.6476  -74.3235 H         1 UNK         0.0793 
    126 H126      -81.8826   30.1708  -75.4919 H         1 UNK         0.0793 
    127 H127      -80.1397   27.4991  -73.4146 H         1 UNK         0.2896 
@<TRIPOS>BOND
     1    1    2 1    
     2    1   67 1    
     3    1   68 1    
     4    1   69 1    
     5    2    3 2    
     6    2    4 am   BACKBONE|DICT|INTERRES
     7    4    5 1    
     8    4   70 1    
     9    5    6 1    
    10    5   65 1    
    11    5   71 1    
    12    6    7 1    
    13    6   72 1    
    14    6   73 1    
    15    7    8 1    
    16    8    9 1    
    17    8   74 1    
    18    8   75 1    
    19    9   10 ar   
    20    9   14 ar   
    21   10   11 ar   
    22   10   76 1    
    23   11   12 ar   
    24   11   48 1    
    25   12   13 ar   
    26   12   77 1    
    27   13   14 ar   
    28   13   15 1    
    29   14   78 1    
    30   15   16 1    
    31   15   79 1    
    32   15   80 1    
    33   16   17 1    
    34   17   18 1    
    35   17   81 1    
    36   17   82 1    
    37   18   19 1    
    38   18   22 1    
    39   18   83 1    
    40   19   20 am   BACKBONE|DICT|INTERRES
    41   19   21 2    
    42   20   84 1    
    43   20   85 1    
    44   22   23 am   BACKBONE|DICT|INTERRES
    45   22   86 1    
    46   23   24 2    
    47   23   25 1    
    48   25   26 1    
    49   25   27 1    
    50   25   87 1    
    51   26   88 1    
    52   26   89 1    
    53   26   90 1    
    54   27   28 am   BACKBONE|DICT|INTERRES
    55   27   91 1    
    56   28   29 2    
    57   28   30 1    
    58   30   31 1    
    59   30   32 1    
    60   30   92 1    
    61   31   93 1    
    62   31   94 1    
    63   31   95 1    
    64   32   33 am   BACKBONE|DICT|INTERRES
    65   32   96 1    
    66   33   34 2    
    67   33   35 1    
    68   35   36 1    
    69   35   37 1    
    70   35   97 1    
    71   36   98 1    
    72   36   99 1    
    73   36  100 1    
    74   37   38 am   BACKBONE|DICT|INTERRES
    75   37  101 1    
    76   38   39 2    
    77   38   40 1    
    78   40   41 1    
    79   40   42 1    
    80   40  102 1    
    81   41  103 1    
    82   41  104 1    
    83   41  105 1    
    84   42   43 am   BACKBONE|DICT|INTERRES
    85   42  106 1    
    86   43   44 2    
    87   43   45 1    
    88   45   46 1    
    89   45   49 1    
    90   45  107 1    
    91   46   47 1    
    92   46  108 1    
    93   46  109 1    
    94   47   48 1    
    95   48  110 1    
    96   48  111 1    
    97   49   50 am   BACKBONE|DICT|INTERRES
    98   49  112 1    
    99   50   51 2    
   100   50   52 1    
   101   52   53 1    
   102   52   54 1    
   103   52  113 1    
   104   53  114 1    
   105   53  115 1    
   106   53  116 1    
   107   54   55 am   BACKBONE|DICT|INTERRES
   108   54  117 1    
   109   55   56 2    
   110   55   57 1    
   111   57   58 1    
   112   57   59 1    
   113   57  118 1    
   114   58  119 1    
   115   58  120 1    
   116   58  121 1    
   117   59   60 am   BACKBONE|DICT|INTERRES
   118   59  122 1    
   119   60   61 2    
   120   60   62 1    
   121   62   63 1    
   122   62   64 1    
   123   62  123 1    
   124   63  124 1    
   125   63  125 1    
   126   63  126 1    
   127   64   65 am   BACKBONE|DICT|INTERRES
   128   64  127 1    
   129   65   66 2    
@<TRIPOS>SUBSTRUCTURE
     1 UNK         1 GROUP             0       ****    0 ROOT    
