@<TRIPOS>MOLECULE
3R135
127   129    1
SMALL
USER_CHARGES


@<TRIPOS>ATOM
      1 CA        -83.7350   27.3063  -73.6763 C.3       0 UNK        -0.1998 
      2 C         -82.3809   26.6248  -73.8015 C.2       0 UNK         0.4909 
      3 O         -81.8051   26.6105  -74.8878 O.2       0 UNK        -0.5240 
      4 N         -81.8695   26.0691  -72.6959 N.am      1 UNK        -0.4739 
      5 CA        -80.5992   25.3416  -72.6289 C.3       1 UNK         0.0864 
      6 C6        -80.1811   25.1106  -71.1555 C.3       11 UNK        -0.0881 
      7 S7        -78.4034   24.7410  -70.9764 S.3       11 UNK        -0.2682 
      8 C8        -77.8692   26.0159  -69.7941 C.3       11 UNK         0.0289 
      9 C9        -77.4720   27.3118  -70.4859 C.ar      11 UNK        -0.0687 
     10 C10       -78.4416   28.2451  -70.8682 C.ar      11 UNK        -0.0823 
     11 C11       -78.0687   29.4557  -71.4594 C.ar      11 UNK        -0.0830 
     12 C12       -76.7119   29.7361  -71.6523 C.ar      11 UNK        -0.1021 
     13 C13       -75.7347   28.8103  -71.2770 C.ar      11 UNK        -0.0753 
     14 C14       -76.1206   27.5961  -70.7042 C.ar      11 UNK        -0.0933 
     15 C15       -74.2618   29.1370  -71.4591 C.3       11 UNK         0.0166 
     16 S16       -73.7217   28.8073  -73.1616 S.3       11 UNK        -0.2615 
     17 C17       -72.9915   30.4237  -73.6061 C.3       11 UNK        -0.0865 
     18 CA        -72.3453   30.4418  -75.0175 C.3       10 UNK         0.0862 
     19 C         -71.7608   31.8439  -75.3552 C.2       10 UNK         0.5551 
     20 N         -70.4743   31.9747  -75.6555 N.am      10 UNK        -0.7319 
     21 O         -72.4904   32.8321  -75.3487 O.2       10 UNK        -0.5018 
     22 N         -71.4013   29.3271  -75.1789 N.am      10 UNK        -0.4509 
     23 C         -71.0614   28.7351  -76.3267 C.2       10 UNK         0.4899 
     24 O         -71.4318   29.1230  -77.4341 O.2       10 UNK        -0.4839 
     25 CA        -70.1993   27.4617  -76.2246 C.3       9 UNK         0.0222 
     26 CB        -68.6957   27.7973  -76.2668 C.3       9 UNK        -0.1966 
     27 N         -70.5430   26.5941  -75.0834 N.am      9 UNK        -0.4218 
     28 C         -70.3685   26.8141  -73.7699 C.2       9 UNK         0.5020 
     29 O         -69.8192   27.8174  -73.3120 O.2       9 UNK        -0.5274 
     30 CA        -70.9970   25.7825  -72.8203 C.3       8 UNK         0.0270 
     31 CB        -70.9550   26.2204  -71.3436 C.3       8 UNK        -0.1976 
     32 N         -72.3880   25.5736  -73.2176 N.am      8 UNK        -0.4313 
     33 C         -72.9391   24.3985  -73.5404 C.2       8 UNK         0.5041 
     34 O         -72.3584   23.3166  -73.4463 O.2       8 UNK        -0.5577 
     35 CA        -74.3755   24.4364  -74.0925 C.3       7 UNK         0.0284 
     36 CB        -75.3946   24.1889  -72.9696 C.3       7 UNK        -0.1958 
     37 N         -74.7164   25.6861  -74.7806 N.am      7 UNK        -0.4454 
     38 C         -74.1549   26.1302  -75.9162 C.2       7 UNK         0.5089 
     39 O         -73.2331   25.5491  -76.4899 O.2       7 UNK        -0.5125 
     40 CA        -74.7163   27.4368  -76.5041 C.3       6 UNK         0.0408 
     41 CB        -74.7353   27.4320  -78.0432 C.3       6 UNK        -0.1791 
     42 N         -76.0607   27.7025  -75.9952 N.am      6 UNK        -0.4762 
     43 C         -76.5734   28.8963  -75.6780 C.2       6 UNK         0.5007 
     44 O         -75.9760   29.9622  -75.8339 O.2       6 UNK        -0.5032 
     45 CA        -78.0186   28.8757  -75.1283 C.3       5 UNK         0.0783 
     46 C46       -78.4827   30.2562  -74.5983 C.3       11 UNK        -0.0857 
     47 S47       -79.9003   30.0778  -73.4651 S.3       11 UNK        -0.2512 
     48 C48       -79.1318   30.4717  -71.8590 C.3       11 UNK         0.0225 
     49 N         -78.9414   28.3626  -76.1481 N.am      5 UNK        -0.4615 
     50 C         -79.0519   27.0857  -76.5294 C.2       4 UNK         0.5053 
     51 O         -78.4629   26.1516  -75.9682 O.2       4 UNK        -0.5105 
     52 CA        -79.8981   26.8226  -77.7847 C.3       4 UNK         0.0263 
     53 CB        -79.3380   27.5750  -79.0107 C.3       4 UNK        -0.1981 
     54 N         -79.8746   25.3879  -78.0242 N.am      4 UNK        -0.4224 
     55 C         -80.6656   24.6671  -78.8263 C.2       3 UNK         0.4895 
     56 O         -81.5304   25.1462  -79.5605 O.2       3 UNK        -0.5091 
     57 CA        -80.4547   23.1393  -78.7917 C.3       3 UNK         0.0250 
     58 CB        -79.5694   22.6899  -79.9655 C.3       3 UNK        -0.1996 
     59 N         -79.8497   22.6946  -77.5299 N.am      3 UNK        -0.4254 
     60 C         -80.4951   22.6925  -76.3547 C.2       2 UNK         0.5004 
     61 O         -81.7112   22.8638  -76.2571 O.2       2 UNK        -0.5226 
     62 CA        -79.6481   22.5149  -75.0802 C.3       2 UNK         0.0269 
     63 CB        -78.1594   22.2003  -75.3423 C.3       2 UNK        -0.1926 
     64 N         -79.7280   23.7319  -74.2702 N.am      2 UNK        -0.4687 
     65 C         -80.6966   23.9994  -73.3847 C.2       1 UNK         0.5165 
     66 O         -81.6169   23.2229  -73.1131 O.2       1 UNK        -0.5079 
     67 H67       -83.6477   28.3604  -73.9386 H         1 UNK         0.0900 
     68 H68       -84.1340   27.2405  -72.6642 H         1 UNK         0.0900 
     69 H69       -84.4514   26.8438  -74.3546 H         1 UNK         0.0900 
     70 H70       -82.4112   26.0821  -71.8438 H         1 UNK         0.2959 
     71 H71       -79.8465   25.9694  -73.1134 H         1 UNK         0.1079 
     72 H72       -80.4206   25.9908  -70.5599 H         1 UNK         0.0837 
     73 H73       -80.7544   24.2995  -70.7014 H         1 UNK         0.0837 
     74 H74       -78.6509   26.2035  -69.0566 H         1 UNK         0.0685 
     75 H75       -77.0218   25.6221  -69.2308 H         1 UNK         0.0685 
     76 H76       -79.4887   28.0401  -70.6988 H         1 UNK         0.1434 
     77 H77       -76.4099   30.6776  -72.0903 H         1 UNK         0.1329 
     78 H78       -75.3658   26.8814  -70.4057 H         1 UNK         0.1335 
     79 H79       -73.6504   28.5473  -70.7745 H         1 UNK         0.0680 
     80 H80       -74.0877   30.1813  -71.1954 H         1 UNK         0.0680 
     81 H81       -72.2500   30.6882  -72.8497 H         1 UNK         0.1032 
     82 H82       -73.7793   31.1772  -73.5446 H         1 UNK         0.1032 
     83 H83       -73.1496   30.2918  -75.7389 H         1 UNK         0.0461 
     84 H84       -69.8728   31.1669  -75.6667 H         1 UNK         0.3453 
     85 H85       -70.1055   32.8863  -75.8759 H         1 UNK         0.3453 
     86 H86       -70.9938   28.9566  -74.3258 H         1 UNK         0.2984 
     87 H87       -70.4243   26.8674  -77.1118 H         1 UNK         0.0554 
     88 H88       -68.0869   26.8935  -76.2473 H         1 UNK         0.0847 
     89 H89       -68.3899   28.4260  -75.4303 H         1 UNK         0.0847 
     90 H90       -68.4456   28.3363  -77.1815 H         1 UNK         0.0847 
     91 H91       -71.0738   25.7703  -75.3386 H         1 UNK         0.3141 
     92 H92       -70.4191   24.8619  -72.9243 H         1 UNK         0.0743 
     93 H93       -71.4867   27.1597  -71.1862 H         1 UNK         0.0784 
     94 H94       -71.4055   25.4683  -70.6958 H         1 UNK         0.0784 
     95 H95       -69.9275   26.3646  -71.0072 H         1 UNK         0.0784 
     96 H96       -72.9427   26.4116  -73.3415 H         1 UNK         0.3213 
     97 H97       -74.4644   23.6259  -74.8193 H         1 UNK         0.0855 
     98 H98       -75.3725   24.9811  -72.2204 H         1 UNK         0.0814 
     99 H99       -75.1900   23.2490  -72.4552 H         1 UNK         0.0814 
    100 H100      -76.4101   24.1261  -73.3609 H         1 UNK         0.0814 
    101 H101      -75.4321   26.2566  -74.3547 H         1 UNK         0.3105 
    102 H102      -74.0459   28.2282  -76.1723 H         1 UNK         0.0547 
    103 H103      -73.7318   27.2911  -78.4471 H         1 UNK         0.0837 
    104 H104      -75.3644   26.6320  -78.4347 H         1 UNK         0.0837 
    105 H105      -75.1084   28.3773  -78.4368 H         1 UNK         0.0837 
    106 H106      -76.6786   26.8979  -75.9165 H         1 UNK         0.3020 
    107 H107      -78.0082   28.1806  -74.2846 H         1 UNK         0.1245 
    108 H108      -77.6804   30.7766  -74.0745 H         1 UNK         0.0781 
    109 H109      -78.7655   30.9141  -75.4217 H         1 UNK         0.0781 
    110 H110      -78.7087   31.4769  -71.8963 H         1 UNK         0.0836 
    111 H111      -79.9108   30.5028  -71.0958 H         1 UNK         0.0836 
    112 H112      -79.4574   29.0629  -76.6596 H         1 UNK         0.3022 
    113 H113      -80.9253   27.1335  -77.5840 H         1 UNK         0.0747 
    114 H114      -79.9101   27.3554  -79.9120 H         1 UNK         0.0793 
    115 H115      -79.3770   28.6553  -78.8695 H         1 UNK         0.0793 
    116 H116      -78.2981   27.3073  -79.2039 H         1 UNK         0.0793 
    117 H117      -79.2233   24.9059  -77.4171 H         1 UNK         0.3047 
    118 H118      -81.4335   22.6660  -78.8969 H         1 UNK         0.0822 
    119 H119      -79.4558   21.6058  -79.9849 H         1 UNK         0.0807 
    120 H120      -78.5738   23.1326  -79.9155 H         1 UNK         0.0807 
    121 H121      -80.0091   22.9852  -80.9193 H         1 UNK         0.0807 
    122 H122      -78.8568   22.5101  -77.5387 H         1 UNK         0.2946 
    123 H123      -80.0778   21.6763  -74.5271 H         1 UNK         0.1144 
    124 H124      -78.0427   21.2955  -75.9405 H         1 UNK         0.0793 
    125 H125      -77.6314   22.0249  -74.4045 H         1 UNK         0.0793 
    126 H126      -77.6470   23.0159  -75.8548 H         1 UNK         0.0793 
    127 H127      -79.0508   24.4545  -74.4796 H         1 UNK         0.2896 
@<TRIPOS>BOND
     1    1    2 1    
     2    1   67 1    
     3    1   68 1    
     4    1   69 1    
     5    2    3 2    
     6    2    4 am   BACKBONE|DICT|INTERRES
     7    4    5 1    
     8    4   70 1    
     9    5    6 1    
    10    5   65 1    
    11    5   71 1    
    12    6    7 1    
    13    6   72 1    
    14    6   73 1    
    15    7    8 1    
    16    8    9 1    
    17    8   74 1    
    18    8   75 1    
    19    9   10 ar   
    20    9   14 ar   
    21   10   11 ar   
    22   10   76 1    
    23   11   12 ar   
    24   11   48 1    
    25   12   13 ar   
    26   12   77 1    
    27   13   14 ar   
    28   13   15 1    
    29   14   78 1    
    30   15   16 1    
    31   15   79 1    
    32   15   80 1    
    33   16   17 1    
    34   17   18 1    
    35   17   81 1    
    36   17   82 1    
    37   18   19 1    
    38   18   22 1    
    39   18   83 1    
    40   19   20 am   BACKBONE|DICT|INTERRES
    41   19   21 2    
    42   20   84 1    
    43   20   85 1    
    44   22   23 am   BACKBONE|DICT|INTERRES
    45   22   86 1    
    46   23   24 2    
    47   23   25 1    
    48   25   26 1    
    49   25   27 1    
    50   25   87 1    
    51   26   88 1    
    52   26   89 1    
    53   26   90 1    
    54   27   28 am   BACKBONE|DICT|INTERRES
    55   27   91 1    
    56   28   29 2    
    57   28   30 1    
    58   30   31 1    
    59   30   32 1    
    60   30   92 1    
    61   31   93 1    
    62   31   94 1    
    63   31   95 1    
    64   32   33 am   BACKBONE|DICT|INTERRES
    65   32   96 1    
    66   33   34 2    
    67   33   35 1    
    68   35   36 1    
    69   35   37 1    
    70   35   97 1    
    71   36   98 1    
    72   36   99 1    
    73   36  100 1    
    74   37   38 am   BACKBONE|DICT|INTERRES
    75   37  101 1    
    76   38   39 2    
    77   38   40 1    
    78   40   41 1    
    79   40   42 1    
    80   40  102 1    
    81   41  103 1    
    82   41  104 1    
    83   41  105 1    
    84   42   43 am   BACKBONE|DICT|INTERRES
    85   42  106 1    
    86   43   44 2    
    87   43   45 1    
    88   45   46 1    
    89   45   49 1    
    90   45  107 1    
    91   46   47 1    
    92   46  108 1    
    93   46  109 1    
    94   47   48 1    
    95   48  110 1    
    96   48  111 1    
    97   49   50 am   BACKBONE|DICT|INTERRES
    98   49  112 1    
    99   50   51 2    
   100   50   52 1    
   101   52   53 1    
   102   52   54 1    
   103   52  113 1    
   104   53  114 1    
   105   53  115 1    
   106   53  116 1    
   107   54   55 am   BACKBONE|DICT|INTERRES
   108   54  117 1    
   109   55   56 2    
   110   55   57 1    
   111   57   58 1    
   112   57   59 1    
   113   57  118 1    
   114   58  119 1    
   115   58  120 1    
   116   58  121 1    
   117   59   60 am   BACKBONE|DICT|INTERRES
   118   59  122 1    
   119   60   61 2    
   120   60   62 1    
   121   62   63 1    
   122   62   64 1    
   123   62  123 1    
   124   63  124 1    
   125   63  125 1    
   126   63  126 1    
   127   64   65 am   BACKBONE|DICT|INTERRES
   128   64  127 1    
   129   65   66 2    
@<TRIPOS>SUBSTRUCTURE
     1 UNK         1 GROUP             0       ****    0 ROOT    
