@<TRIPOS>MOLECULE
3R135
127   129    1
SMALL
USER_CHARGES


@<TRIPOS>ATOM
      1 CA        -84.5604   28.6221  -74.9877 C.3       0 UNK        -0.1998 
      2 C         -83.5834   27.6679  -74.3179 C.2       0 UNK         0.4909 
      3 O         -83.9598   26.5426  -73.9871 O.2       0 UNK        -0.5240 
      4 N         -82.3320   28.1085  -74.1209 N.am      1 UNK        -0.4739 
      5 CA        -81.2125   27.3717  -73.5166 C.3       1 UNK         0.0864 
      6 C6        -81.5194   26.8554  -72.0829 C.3       11 UNK        -0.0881 
      7 S7        -80.0367   26.6204  -71.0444 S.3       11 UNK        -0.2682 
      8 C8        -79.9411   28.1704  -70.0876 C.3       11 UNK         0.0289 
      9 C9        -78.7975   29.0486  -70.5744 C.ar      11 UNK        -0.0687 
     10 C10       -78.9764   29.8894  -71.6751 C.ar      11 UNK        -0.0823 
     11 C11       -77.9178   30.6640  -72.1587 C.ar      11 UNK        -0.0830 
     12 C12       -76.6837   30.6283  -71.5036 C.ar      11 UNK        -0.1021 
     13 C13       -76.4993   29.8160  -70.3805 C.ar      11 UNK        -0.0753 
     14 C14       -77.5587   29.0231  -69.9249 C.ar      11 UNK        -0.0933 
     15 C15       -75.1640   29.8258  -69.6460 C.3       11 UNK         0.0166 
     16 S16       -74.3841   28.1829  -69.5334 S.3       11 UNK        -0.2615 
     17 C17       -74.0371   27.7921  -71.2819 C.3       11 UNK        -0.0865 
     18 CA        -72.7408   28.4243  -71.8602 C.3       10 UNK         0.0862 
     19 C         -71.4383   27.7969  -71.2689 C.2       10 UNK         0.5551 
     20 N         -70.6005   27.1210  -72.0472 N.am      10 UNK        -0.7319 
     21 O         -71.1614   27.9470  -70.0820 O.2       10 UNK        -0.5018 
     22 N         -72.8031   28.4069  -73.3282 N.am      10 UNK        -0.4509 
     23 C         -72.0833   29.1732  -74.1545 C.2       10 UNK         0.4899 
     24 O         -71.3454   30.0826  -73.7718 O.2       10 UNK        -0.4839 
     25 CA        -72.2097   28.8569  -75.6616 C.3       9 UNK         0.0222 
     26 CB        -71.0626   29.4659  -76.4948 C.3       9 UNK        -0.1966 
     27 N         -72.3499   27.4220  -75.9598 N.am      9 UNK        -0.4218 
     28 C         -71.5124   26.4331  -75.6067 C.2       9 UNK         0.5020 
     29 O         -70.4877   26.6123  -74.9467 O.2       9 UNK        -0.5274 
     30 CA        -71.8635   24.9954  -76.0363 C.3       8 UNK         0.0270 
     31 CB        -72.2015   24.1145  -74.8221 C.3       8 UNK        -0.1976 
     32 N         -72.9440   24.9018  -77.0254 N.am      8 UNK        -0.4313 
     33 C         -72.7613   25.1041  -78.3381 C.2       8 UNK         0.5041 
     34 O         -71.6939   25.4741  -78.8289 O.2       8 UNK        -0.5577 
     35 CA        -73.9537   24.8446  -79.2650 C.3       7 UNK         0.0284 
     36 CB        -74.2075   23.3351  -79.4249 C.3       7 UNK        -0.1958 
     37 N         -75.1671   25.5000  -78.7751 N.am      7 UNK        -0.4454 
     38 C         -75.8658   26.4063  -79.4703 C.2       7 UNK         0.5089 
     39 O         -75.5485   26.8110  -80.5897 O.2       7 UNK        -0.5125 
     40 CA        -77.1551   26.9471  -78.8296 C.3       6 UNK         0.0408 
     41 CB        -78.3416   26.0303  -79.1649 C.3       6 UNK        -0.1791 
     42 N         -77.0907   27.1469  -77.3799 N.am      6 UNK        -0.4762 
     43 C         -76.2926   28.0290  -76.7587 C.2       6 UNK         0.5007 
     44 O         -75.3987   28.6645  -77.3166 O.2       6 UNK        -0.5032 
     45 CA        -76.5581   28.2383  -75.2579 C.3       5 UNK         0.0783 
     46 C46       -77.7360   29.2227  -75.0319 C.3       11 UNK        -0.0857 
     47 S47       -77.1488   30.9395  -74.8275 S.3       11 UNK        -0.2512 
     48 C48       -78.1106   31.5327  -73.3946 C.3       11 UNK         0.0225 
     49 N         -76.7843   26.9493  -74.6022 N.am      5 UNK        -0.4615 
     50 C         -75.7967   26.1705  -74.1514 C.2       4 UNK         0.5053 
     51 O         -74.6124   26.4924  -74.1832 O.2       4 UNK        -0.5105 
     52 CA        -76.1791   24.7885  -73.6080 C.3       4 UNK         0.0263 
     53 CB        -76.9061   24.9122  -72.2627 C.3       4 UNK        -0.1981 
     54 N         -76.9954   24.0107  -74.5388 N.am      4 UNK        -0.4224 
     55 C         -76.6716   23.6858  -75.7960 C.2       3 UNK         0.4895 
     56 O         -75.6292   24.0407  -76.3499 O.2       3 UNK        -0.5091 
     57 CA        -77.6888   22.8403  -76.5853 C.3       3 UNK         0.0250 
     58 CB        -77.6235   21.3589  -76.1677 C.3       3 UNK        -0.1996 
     59 N         -79.0660   23.3599  -76.5483 N.am      3 UNK        -0.4254 
     60 C         -79.8924   23.4850  -75.4990 C.2       2 UNK         0.5004 
     61 O         -79.6395   23.0855  -74.3596 O.2       2 UNK        -0.5226 
     62 CA        -81.2182   24.2179  -75.7677 C.3       2 UNK         0.0269 
     63 CB        -82.3937   23.2280  -75.7542 C.3       2 UNK        -0.1926 
     64 N         -81.4873   25.2959  -74.8094 N.am      2 UNK        -0.4687 
     65 C         -80.6568   26.2930  -74.4711 C.2       1 UNK         0.5165 
     66 O         -79.5189   26.4230  -74.9284 O.2       1 UNK        -0.5079 
     67 H67       -84.0997   29.5815  -75.2223 H         1 UNK         0.0900 
     68 H68       -85.4120   28.8062  -74.3332 H         1 UNK         0.0900 
     69 H69       -84.9315   28.1878  -75.9156 H         1 UNK         0.0900 
     70 H70       -82.0963   29.0350  -74.4494 H         1 UNK         0.2959 
     71 H71       -80.4194   28.1118  -73.4281 H         1 UNK         0.1079 
     72 H72       -82.0651   25.9109  -72.1162 H         1 UNK         0.0837 
     73 H73       -82.1889   27.5489  -71.5726 H         1 UNK         0.0837 
     74 H74       -80.8815   28.7205  -70.1346 H         1 UNK         0.0685 
     75 H75       -79.7948   27.9187  -69.0361 H         1 UNK         0.0685 
     76 H76       -79.9384   29.9282  -72.1653 H         1 UNK         0.1434 
     77 H77       -75.8684   31.2361  -71.8721 H         1 UNK         0.1329 
     78 H78       -77.4155   28.3851  -69.0635 H         1 UNK         0.1335 
     79 H79       -75.3268   30.2020  -68.6352 H         1 UNK         0.0680 
     80 H80       -74.4636   30.5166  -70.1178 H         1 UNK         0.0680 
     81 H81       -74.0037   26.7065  -71.3903 H         1 UNK         0.1032 
     82 H82       -74.9012   28.1128  -71.8661 H         1 UNK         0.1032 
     83 H83       -72.7286   29.4747  -71.5646 H         1 UNK         0.0461 
     84 H84       -70.7623   27.0242  -73.0442 H         1 UNK         0.3453 
     85 H85       -69.7622   26.7371  -71.6419 H         1 UNK         0.3453 
     86 H86       -73.3808   27.6701  -73.7322 H         1 UNK         0.2984 
     87 H87       -73.1373   29.3279  -75.9875 H         1 UNK         0.0554 
     88 H88       -71.1892   29.2554  -77.5567 H         1 UNK         0.0847 
     89 H89       -70.0912   29.0759  -76.1889 H         1 UNK         0.0847 
     90 H90       -71.0282   30.5503  -76.3832 H         1 UNK         0.0847 
     91 H91       -73.1880   27.1586  -76.4587 H         1 UNK         0.3141 
     92 H92       -70.9572   24.5825  -76.4850 H         1 UNK         0.0743 
     93 H93       -73.1017   24.4501  -74.3133 H         1 UNK         0.0784 
     94 H94       -72.3525   23.0758  -75.1163 H         1 UNK         0.0784 
     95 H95       -71.3926   24.1285  -74.0904 H         1 UNK         0.0784 
     96 H96       -73.8519   24.5840  -76.6917 H         1 UNK         0.3213 
     97 H97       -73.6781   25.2353  -80.2471 H         1 UNK         0.0855 
     98 H98       -73.3157   22.8277  -79.7953 H         1 UNK         0.0814 
     99 H99       -75.0081   23.1442  -80.1395 H         1 UNK         0.0814 
    100 H100      -74.4829   22.8619  -78.4821 H         1 UNK         0.0814 
    101 H101      -75.4962   25.2163  -77.8570 H         1 UNK         0.3105 
    102 H102      -77.3529   27.9238  -79.2765 H         1 UNK         0.0547 
    103 H103      -79.2772   26.4223  -78.7656 H         1 UNK         0.0837 
    104 H104      -78.4662   25.9379  -80.2448 H         1 UNK         0.0837 
    105 H105      -78.1963   25.0254  -78.7709 H         1 UNK         0.0837 
    106 H106      -77.7905   26.6753  -76.8238 H         1 UNK         0.3020 
    107 H107      -75.6546   28.6788  -74.8289 H         1 UNK         0.1245 
    108 H108      -78.2847   28.9314  -74.1389 H         1 UNK         0.0781 
    109 H109      -78.4737   29.1882  -75.8365 H         1 UNK         0.0781 
    110 H110      -79.1640   31.5840  -73.6743 H         1 UNK         0.0836 
    111 H111      -77.8073   32.5550  -73.1647 H         1 UNK         0.0836 
    112 H112      -77.7462   26.6168  -74.5730 H         1 UNK         0.3022 
    113 H113      -75.2565   24.2309  -73.4409 H         1 UNK         0.0747 
    114 H114      -77.0499   23.9370  -71.7975 H         1 UNK         0.0793 
    115 H115      -77.8866   25.3681  -72.3894 H         1 UNK         0.0793 
    116 H116      -76.3443   25.5297  -71.5603 H         1 UNK         0.0793 
    117 H117      -77.9030   23.6918  -74.2052 H         1 UNK         0.3047 
    118 H118      -77.3822   22.8907  -77.6315 H         1 UNK         0.0822 
    119 H119      -77.9029   21.2117  -75.1241 H         1 UNK         0.0807 
    120 H120      -76.6131   20.9660  -76.2894 H         1 UNK         0.0807 
    121 H121      -78.2847   20.7459  -76.7802 H         1 UNK         0.0807 
    122 H122      -79.3975   23.7161  -77.4334 H         1 UNK         0.2946 
    123 H123      -81.1703   24.6802  -76.7557 H         1 UNK         0.1144 
    124 H124      -82.2394   22.4255  -76.4770 H         1 UNK         0.0793 
    125 H125      -82.5169   22.7653  -74.7739 H         1 UNK         0.0793 
    126 H126      -83.3316   23.7203  -76.0126 H         1 UNK         0.0793 
    127 H127      -82.4240   25.3369  -74.4203 H         1 UNK         0.2896 
@<TRIPOS>BOND
     1    1    2 1    
     2    1   67 1    
     3    1   68 1    
     4    1   69 1    
     5    2    3 2    
     6    2    4 am   BACKBONE|DICT|INTERRES
     7    4    5 1    
     8    4   70 1    
     9    5    6 1    
    10    5   65 1    
    11    5   71 1    
    12    6    7 1    
    13    6   72 1    
    14    6   73 1    
    15    7    8 1    
    16    8    9 1    
    17    8   74 1    
    18    8   75 1    
    19    9   10 ar   
    20    9   14 ar   
    21   10   11 ar   
    22   10   76 1    
    23   11   12 ar   
    24   11   48 1    
    25   12   13 ar   
    26   12   77 1    
    27   13   14 ar   
    28   13   15 1    
    29   14   78 1    
    30   15   16 1    
    31   15   79 1    
    32   15   80 1    
    33   16   17 1    
    34   17   18 1    
    35   17   81 1    
    36   17   82 1    
    37   18   19 1    
    38   18   22 1    
    39   18   83 1    
    40   19   20 am   BACKBONE|DICT|INTERRES
    41   19   21 2    
    42   20   84 1    
    43   20   85 1    
    44   22   23 am   BACKBONE|DICT|INTERRES
    45   22   86 1    
    46   23   24 2    
    47   23   25 1    
    48   25   26 1    
    49   25   27 1    
    50   25   87 1    
    51   26   88 1    
    52   26   89 1    
    53   26   90 1    
    54   27   28 am   BACKBONE|DICT|INTERRES
    55   27   91 1    
    56   28   29 2    
    57   28   30 1    
    58   30   31 1    
    59   30   32 1    
    60   30   92 1    
    61   31   93 1    
    62   31   94 1    
    63   31   95 1    
    64   32   33 am   BACKBONE|DICT|INTERRES
    65   32   96 1    
    66   33   34 2    
    67   33   35 1    
    68   35   36 1    
    69   35   37 1    
    70   35   97 1    
    71   36   98 1    
    72   36   99 1    
    73   36  100 1    
    74   37   38 am   BACKBONE|DICT|INTERRES
    75   37  101 1    
    76   38   39 2    
    77   38   40 1    
    78   40   41 1    
    79   40   42 1    
    80   40  102 1    
    81   41  103 1    
    82   41  104 1    
    83   41  105 1    
    84   42   43 am   BACKBONE|DICT|INTERRES
    85   42  106 1    
    86   43   44 2    
    87   43   45 1    
    88   45   46 1    
    89   45   49 1    
    90   45  107 1    
    91   46   47 1    
    92   46  108 1    
    93   46  109 1    
    94   47   48 1    
    95   48  110 1    
    96   48  111 1    
    97   49   50 am   BACKBONE|DICT|INTERRES
    98   49  112 1    
    99   50   51 2    
   100   50   52 1    
   101   52   53 1    
   102   52   54 1    
   103   52  113 1    
   104   53  114 1    
   105   53  115 1    
   106   53  116 1    
   107   54   55 am   BACKBONE|DICT|INTERRES
   108   54  117 1    
   109   55   56 2    
   110   55   57 1    
   111   57   58 1    
   112   57   59 1    
   113   57  118 1    
   114   58  119 1    
   115   58  120 1    
   116   58  121 1    
   117   59   60 am   BACKBONE|DICT|INTERRES
   118   59  122 1    
   119   60   61 2    
   120   60   62 1    
   121   62   63 1    
   122   62   64 1    
   123   62  123 1    
   124   63  124 1    
   125   63  125 1    
   126   63  126 1    
   127   64   65 am   BACKBONE|DICT|INTERRES
   128   64  127 1    
   129   65   66 2    
@<TRIPOS>SUBSTRUCTURE
     1 UNK         1 GROUP             0       ****    0 ROOT    
