@<TRIPOS>MOLECULE
3R135
127   129    1
SMALL
USER_CHARGES


@<TRIPOS>ATOM
      1 CA        -86.1285   26.7782  -74.0643 C.3       0 UNK        -0.1998 
      2 C         -84.6875   27.1496  -73.7475 C.2       0 UNK         0.4909 
      3 O         -84.2774   27.0629  -72.5901 O.2       0 UNK        -0.5240 
      4 N         -83.9225   27.5613  -74.7697 N.am      1 UNK        -0.4739 
      5 CA        -82.5073   27.9588  -74.6912 C.3       1 UNK         0.0864 
      6 C6        -82.2866   29.2174  -73.8010 C.3       11 UNK        -0.0881 
      7 S7        -80.9913   30.3298  -74.4487 S.3       11 UNK        -0.2682 
      8 C8        -80.2375   30.9561  -72.9131 C.3       11 UNK         0.0289 
      9 C9        -78.9689   30.1983  -72.5480 C.ar      11 UNK        -0.0687 
     10 C10       -79.0319   29.0231  -71.7921 C.ar      11 UNK        -0.0823 
     11 C11       -77.8631   28.3386  -71.4422 C.ar      11 UNK        -0.0830 
     12 C12       -76.6288   28.8476  -71.8487 C.ar      11 UNK        -0.1021 
     13 C13       -76.5475   30.0132  -72.6137 C.ar      11 UNK        -0.0753 
     14 C14       -77.7236   30.6862  -72.9572 C.ar      11 UNK        -0.0933 
     15 C15       -75.2005   30.5178  -73.1144 C.3       11 UNK         0.0166 
     16 S16       -74.1012   31.0787  -71.7736 S.3       11 UNK        -0.2615 
     17 C17       -73.0701   29.6013  -71.4480 C.3       11 UNK        -0.0865 
     18 CA        -71.7677   29.5865  -72.2917 C.3       10 UNK         0.0862 
     19 C         -70.7345   28.5422  -71.7725 C.2       10 UNK         0.5551 
     20 N         -70.0624   27.7791  -72.6276 N.am      10 UNK        -0.7319 
     21 O         -70.5220   28.4306  -70.5676 O.2       10 UNK        -0.5018 
     22 N         -72.0755   29.4181  -73.7190 N.am      10 UNK        -0.4509 
     23 C         -71.5555   30.1418  -74.7155 C.2       10 UNK         0.4899 
     24 O         -70.7832   31.0879  -74.5515 O.2       10 UNK        -0.4839 
     25 CA        -71.9680   29.7172  -76.1389 C.3       9 UNK         0.0222 
     26 CB        -71.0648   30.3249  -77.2326 C.3       9 UNK        -0.1966 
     27 N         -72.0645   28.2605  -76.3024 N.am      9 UNK        -0.4218 
     28 C         -71.0977   27.3515  -76.0894 C.2       9 UNK         0.5020 
     29 O         -69.9712   27.6414  -75.6835 O.2       9 UNK        -0.5274 
     30 CA        -71.4307   25.8637  -76.3227 C.3       8 UNK         0.0270 
     31 CB        -71.2840   25.0712  -75.0119 C.3       8 UNK        -0.1976 
     32 N         -72.7698   25.6298  -76.8675 N.am      8 UNK        -0.4313 
     33 C         -73.1526   25.8854  -78.1257 C.2       8 UNK         0.5041 
     34 O         -72.3880   26.2717  -79.0098 O.2       8 UNK        -0.5577 
     35 CA        -74.6533   25.7411  -78.4314 C.3       7 UNK         0.0284 
     36 CB        -74.9955   24.2981  -78.8327 C.3       7 UNK        -0.1958 
     37 N         -75.5013   26.1680  -77.3117 N.am      7 UNK        -0.4454 
     38 C         -75.6056   27.4338  -76.8782 C.2       7 UNK         0.5089 
     39 O         -75.0122   28.3821  -77.3908 O.2       7 UNK        -0.5125 
     40 CA        -76.4752   27.6757  -75.6347 C.3       6 UNK         0.0408 
     41 CB        -77.9487   27.8722  -76.0190 C.3       6 UNK        -0.1791 
     42 N         -76.3522   26.5960  -74.6539 N.am      6 UNK        -0.4762 
     43 C         -75.2557   26.3817  -73.9086 C.2       6 UNK         0.5007 
     44 O         -74.2513   27.0980  -73.9438 O.2       6 UNK        -0.5032 
     45 CA        -75.2517   25.1195  -73.0211 C.3       5 UNK         0.0783 
     46 C46       -75.8700   25.3552  -71.6190 C.3       11 UNK        -0.0857 
     47 S47       -77.6892   25.5572  -71.6087 S.3       11 UNK        -0.2512 
     48 C48       -77.9301   27.0643  -70.6094 C.3       11 UNK         0.0225 
     49 N         -75.8391   23.9595  -73.7002 N.am      5 UNK        -0.4615 
     50 C         -75.3029   23.3605  -74.7720 C.2       4 UNK         0.5053 
     51 O         -74.2596   23.7292  -75.3074 O.2       4 UNK        -0.5105 
     52 CA        -76.1057   22.2229  -75.4044 C.3       4 UNK         0.0263 
     53 CB        -76.5258   21.1464  -74.3869 C.3       4 UNK        -0.1981 
     54 N         -77.2779   22.8299  -76.0141 N.am      4 UNK        -0.4224 
     55 C         -77.7829   22.5821  -77.2225 C.2       3 UNK         0.4895 
     56 O         -77.3788   21.6850  -77.9637 O.2       3 UNK        -0.5091 
     57 CA        -78.9196   23.5261  -77.6777 C.3       3 UNK         0.0250 
     58 CB        -79.5177   23.1167  -79.0367 C.3       3 UNK        -0.1996 
     59 N         -80.0091   23.6657  -76.7012 N.am      3 UNK        -0.4254 
     60 C         -79.9432   24.2787  -75.5101 C.2       2 UNK         0.5004 
     61 O         -78.9132   24.7980  -75.0694 O.2       2 UNK        -0.5226 
     62 CA        -81.2399   24.2855  -74.6831 C.3       2 UNK         0.0269 
     63 CB        -80.9921   23.8910  -73.2123 C.3       2 UNK        -0.1926 
     64 N         -81.9509   25.5654  -74.7991 N.am      2 UNK        -0.4687 
     65 C         -81.5755   26.7720  -74.3406 C.2       1 UNK         0.5165 
     66 O         -80.5659   26.9673  -73.6690 O.2       1 UNK        -0.5079 
     67 H67       -86.8115   27.4042  -73.4907 H         1 UNK         0.0900 
     68 H68       -86.3606   26.9044  -75.1216 H         1 UNK         0.0900 
     69 H69       -86.3149   25.7381  -73.7981 H         1 UNK         0.0900 
     70 H70       -84.3305   27.6123  -75.6937 H         1 UNK         0.2959 
     71 H71       -82.2426   28.2270  -75.7154 H         1 UNK         0.1079 
     72 H72       -83.2008   29.8115  -73.7588 H         1 UNK         0.0837 
     73 H73       -82.0791   28.9366  -72.7670 H         1 UNK         0.0837 
     74 H74       -80.0065   32.0135  -73.0513 H         1 UNK         0.0685 
     75 H75       -80.9542   30.9155  -72.0915 H         1 UNK         0.0685 
     76 H76       -79.9934   28.6347  -71.4861 H         1 UNK         0.1434 
     77 H77       -75.7291   28.3230  -71.5806 H         1 UNK         0.1329 
     78 H78       -77.6732   31.5877  -73.5524 H         1 UNK         0.1335 
     79 H79       -74.7180   29.7336  -73.6945 H         1 UNK         0.0680 
     80 H80       -75.3423   31.3514  -73.8036 H         1 UNK         0.0680 
     81 H81       -72.8382   29.6143  -70.3815 H         1 UNK         0.1032 
     82 H82       -73.6313   28.6846  -71.6189 H         1 UNK         0.1032 
     83 H83       -71.2802   30.5512  -72.1410 H         1 UNK         0.0461 
     84 H84       -69.3929   27.1176  -72.2686 H         1 UNK         0.3453 
     85 H85       -70.1735   27.8886  -73.6283 H         1 UNK         0.3453 
     86 H86       -72.6847   28.6400  -73.9459 H         1 UNK         0.2984 
     87 H87       -72.9761   30.1060  -76.2895 H         1 UNK         0.0554 
     88 H88       -71.0858   31.4148  -77.1981 H         1 UNK         0.0847 
     89 H89       -71.3938   30.0274  -78.2283 H         1 UNK         0.0847 
     90 H90       -70.0255   30.0156  -77.1163 H         1 UNK         0.0847 
     91 H91       -72.9667   27.9252  -76.6171 H         1 UNK         0.3141 
     92 H92       -70.7003   25.4797  -77.0376 H         1 UNK         0.0743 
     93 H93       -71.9831   25.4202  -74.2510 H         1 UNK         0.0784 
     94 H94       -71.4631   24.0073  -75.1690 H         1 UNK         0.0784 
     95 H95       -70.2786   25.1701  -74.6007 H         1 UNK         0.0784 
     96 H96       -73.4454   25.2148  -76.2307 H         1 UNK         0.3213 
     97 H97       -74.8755   26.3889  -79.2824 H         1 UNK         0.0855 
     98 H98       -74.8306   23.5963  -78.0149 H         1 UNK         0.0814 
     99 H99       -74.3759   23.9707  -79.6688 H         1 UNK         0.0814 
    100 H100      -76.0337   24.2106  -79.1520 H         1 UNK         0.0814 
    101 H101      -75.9899   25.4499  -76.7996 H         1 UNK         0.3105 
    102 H102      -76.1334   28.5996  -75.1678 H         1 UNK         0.0547 
    103 H103      -78.0641   28.7120  -76.7050 H         1 UNK         0.0837 
    104 H104      -78.3657   26.9912  -76.5067 H         1 UNK         0.0837 
    105 H105      -78.5562   28.0890  -75.1395 H         1 UNK         0.0837 
    106 H106      -77.1595   25.9926  -74.5322 H         1 UNK         0.3020 
    107 H107      -74.1973   24.8814  -72.8599 H         1 UNK         0.1245 
    108 H108      -75.3861   26.1971  -71.1247 H         1 UNK         0.0781 
    109 H109      -75.6444   24.4954  -70.9864 H         1 UNK         0.0781 
    110 H110      -77.1955   27.1022  -69.8037 H         1 UNK         0.0836 
    111 H111      -78.9031   26.9938  -70.1210 H         1 UNK         0.0836 
    112 H112      -76.7214   23.6345  -73.3317 H         1 UNK         0.3022 
    113 H113      -75.4797   21.7592  -76.1701 H         1 UNK         0.0747 
    114 H114      -77.0154   20.3105  -74.8867 H         1 UNK         0.0793 
    115 H115      -75.6579   20.7456  -73.8615 H         1 UNK         0.0793 
    116 H116      -77.2181   21.5310  -73.6372 H         1 UNK         0.0793 
    117 H117      -77.7151   23.5922  -75.4951 H         1 UNK         0.3047 
    118 H118      -78.4664   24.5115  -77.8063 H         1 UNK         0.0822 
    119 H119      -78.7468   23.0715  -79.8074 H         1 UNK         0.0807 
    120 H120      -80.2651   23.8345  -79.3752 H         1 UNK         0.0807 
    121 H121      -79.9902   22.1348  -78.9897 H         1 UNK         0.0807 
    122 H122      -80.8871   23.2456  -76.9710 H         1 UNK         0.2946 
    123 H123      -81.9074   23.5295  -75.1002 H         1 UNK         0.1144 
    124 H124      -81.9222   23.8738  -72.6445 H         1 UNK         0.0793 
    125 H125      -80.3087   24.5762  -72.7113 H         1 UNK         0.0793 
    126 H126      -80.5506   22.8959  -73.1471 H         1 UNK         0.0793 
    127 H127      -82.8078   25.5332  -75.3335 H         1 UNK         0.2896 
@<TRIPOS>BOND
     1    1    2 1    
     2    1   67 1    
     3    1   68 1    
     4    1   69 1    
     5    2    3 2    
     6    2    4 am   BACKBONE|DICT|INTERRES
     7    4    5 1    
     8    4   70 1    
     9    5    6 1    
    10    5   65 1    
    11    5   71 1    
    12    6    7 1    
    13    6   72 1    
    14    6   73 1    
    15    7    8 1    
    16    8    9 1    
    17    8   74 1    
    18    8   75 1    
    19    9   10 ar   
    20    9   14 ar   
    21   10   11 ar   
    22   10   76 1    
    23   11   12 ar   
    24   11   48 1    
    25   12   13 ar   
    26   12   77 1    
    27   13   14 ar   
    28   13   15 1    
    29   14   78 1    
    30   15   16 1    
    31   15   79 1    
    32   15   80 1    
    33   16   17 1    
    34   17   18 1    
    35   17   81 1    
    36   17   82 1    
    37   18   19 1    
    38   18   22 1    
    39   18   83 1    
    40   19   20 am   BACKBONE|DICT|INTERRES
    41   19   21 2    
    42   20   84 1    
    43   20   85 1    
    44   22   23 am   BACKBONE|DICT|INTERRES
    45   22   86 1    
    46   23   24 2    
    47   23   25 1    
    48   25   26 1    
    49   25   27 1    
    50   25   87 1    
    51   26   88 1    
    52   26   89 1    
    53   26   90 1    
    54   27   28 am   BACKBONE|DICT|INTERRES
    55   27   91 1    
    56   28   29 2    
    57   28   30 1    
    58   30   31 1    
    59   30   32 1    
    60   30   92 1    
    61   31   93 1    
    62   31   94 1    
    63   31   95 1    
    64   32   33 am   BACKBONE|DICT|INTERRES
    65   32   96 1    
    66   33   34 2    
    67   33   35 1    
    68   35   36 1    
    69   35   37 1    
    70   35   97 1    
    71   36   98 1    
    72   36   99 1    
    73   36  100 1    
    74   37   38 am   BACKBONE|DICT|INTERRES
    75   37  101 1    
    76   38   39 2    
    77   38   40 1    
    78   40   41 1    
    79   40   42 1    
    80   40  102 1    
    81   41  103 1    
    82   41  104 1    
    83   41  105 1    
    84   42   43 am   BACKBONE|DICT|INTERRES
    85   42  106 1    
    86   43   44 2    
    87   43   45 1    
    88   45   46 1    
    89   45   49 1    
    90   45  107 1    
    91   46   47 1    
    92   46  108 1    
    93   46  109 1    
    94   47   48 1    
    95   48  110 1    
    96   48  111 1    
    97   49   50 am   BACKBONE|DICT|INTERRES
    98   49  112 1    
    99   50   51 2    
   100   50   52 1    
   101   52   53 1    
   102   52   54 1    
   103   52  113 1    
   104   53  114 1    
   105   53  115 1    
   106   53  116 1    
   107   54   55 am   BACKBONE|DICT|INTERRES
   108   54  117 1    
   109   55   56 2    
   110   55   57 1    
   111   57   58 1    
   112   57   59 1    
   113   57  118 1    
   114   58  119 1    
   115   58  120 1    
   116   58  121 1    
   117   59   60 am   BACKBONE|DICT|INTERRES
   118   59  122 1    
   119   60   61 2    
   120   60   62 1    
   121   62   63 1    
   122   62   64 1    
   123   62  123 1    
   124   63  124 1    
   125   63  125 1    
   126   63  126 1    
   127   64   65 am   BACKBONE|DICT|INTERRES
   128   64  127 1    
   129   65   66 2    
@<TRIPOS>SUBSTRUCTURE
     1 UNK         1 GROUP             0       ****    0 ROOT    
