@<TRIPOS>MOLECULE
3R135
127   129    1
SMALL
USER_CHARGES


@<TRIPOS>ATOM
      1 CA        -82.1762   25.0405  -68.8386 C.3       0 UNK        -0.1998 
      2 C         -81.5375   25.2709  -70.1993 C.2       0 UNK         0.4909 
      3 O         -80.9935   24.3317  -70.7813 O.2       0 UNK        -0.5240 
      4 N         -81.6198   26.5083  -70.7145 N.am      1 UNK        -0.4739 
      5 CA        -81.0368   26.9752  -71.9842 C.3       1 UNK         0.0864 
      6 C6        -79.4980   27.1746  -71.8993 C.3       11 UNK        -0.0881 
      7 S7        -79.0317   28.6027  -70.8639 S.3       11 UNK        -0.2682 
      8 C8        -79.3862   30.0199  -71.9625 C.3       11 UNK         0.0289 
      9 C9        -78.6813   29.9169  -73.3088 C.ar      11 UNK        -0.0687 
     10 C10       -79.3895   29.5271  -74.4492 C.ar      11 UNK        -0.0823 
     11 C11       -78.7431   29.4060  -75.6824 C.ar      11 UNK        -0.0830 
     12 C12       -77.3762   29.6914  -75.7729 C.ar      11 UNK        -0.1021 
     13 C13       -76.6537   30.0836  -74.6398 C.ar      11 UNK        -0.0753 
     14 C14       -77.3193   30.2064  -73.4137 C.ar      11 UNK        -0.0933 
     15 C15       -75.1659   30.4038  -74.7671 C.3       11 UNK         0.0166 
     16 S16       -74.1612   29.8643  -73.3434 S.3       11 UNK        -0.2615 
     17 C17       -74.3470   28.0478  -73.4049 C.3       11 UNK        -0.0865 
     18 CA        -73.0528   27.3284  -72.9469 C.3       10 UNK         0.0862 
     19 C         -73.2751   25.7962  -72.8115 C.2       10 UNK         0.5551 
     20 N         -73.7182   25.3377  -71.6488 N.am      10 UNK        -0.7319 
     21 O         -73.0689   25.0277  -73.7481 O.2       10 UNK        -0.5018 
     22 N         -71.9202   27.6766  -73.8162 N.am      10 UNK        -0.4509 
     23 C         -70.6343   27.3916  -73.5795 C.2       10 UNK         0.4899 
     24 O         -70.2349   26.8030  -72.5741 O.2       10 UNK        -0.4839 
     25 CA        -69.6062   27.8464  -74.6352 C.3       9 UNK         0.0222 
     26 CB        -69.1287   26.6442  -75.4663 C.3       9 UNK        -0.1966 
     27 N         -70.0894   28.8905  -75.5464 N.am      9 UNK        -0.4218 
     28 C         -70.3917   30.1518  -75.2118 C.2       9 UNK         0.5020 
     29 O         -70.2787   30.5924  -74.0675 O.2       9 UNK        -0.5274 
     30 CA        -70.9295   31.0875  -76.3156 C.3       8 UNK         0.0270 
     31 CB        -69.8710   32.1373  -76.7098 C.3       8 UNK        -0.1976 
     32 N         -71.4869   30.4265  -77.5095 N.am      8 UNK        -0.4313 
     33 C         -70.8601   29.6897  -78.4369 C.2       8 UNK         0.5041 
     34 O         -69.6730   29.3682  -78.3704 O.2       8 UNK        -0.5577 
     35 CA        -71.7327   29.1526  -79.5849 C.3       7 UNK         0.0284 
     36 CB        -70.9112   28.8762  -80.8577 C.3       7 UNK        -0.1958 
     37 N         -72.4093   27.9212  -79.1757 N.am      7 UNK        -0.4454 
     38 C         -73.4482   27.8687  -78.3352 C.2       7 UNK         0.5089 
     39 O         -74.0008   28.8681  -77.8657 O.2       7 UNK        -0.5125 
     40 CA        -73.9307   26.4717  -77.9300 C.3       6 UNK         0.0408 
     41 CB        -72.9005   25.7786  -77.0182 C.3       6 UNK        -0.1791 
     42 N         -75.2112   26.6173  -77.2440 N.am      6 UNK        -0.4762 
     43 C         -76.0874   25.6392  -76.9974 C.2       6 UNK         0.5007 
     44 O         -75.8963   24.4568  -77.2949 O.2       6 UNK        -0.5032 
     45 CA        -77.4290   26.0627  -76.3687 C.3       5 UNK         0.0783 
     46 C46       -78.4335   26.4321  -77.4884 C.3       11 UNK        -0.0857 
     47 S47       -79.9601   27.2079  -76.8687 S.3       11 UNK        -0.2512 
     48 C48       -79.5370   28.9812  -76.9107 C.3       11 UNK         0.0225 
     49 N         -77.9089   24.9946  -75.4839 N.am      5 UNK        -0.4615 
     50 C         -77.4335   24.8122  -74.2452 C.2       4 UNK         0.5053 
     51 O         -76.7085   25.6294  -73.6766 O.2       4 UNK        -0.5105 
     52 CA        -77.7958   23.4956  -73.5388 C.3       4 UNK         0.0263 
     53 CB        -77.3419   23.4585  -72.0632 C.3       4 UNK        -0.1981 
     54 N         -79.2260   23.1909  -73.6262 N.am      4 UNK        -0.4224 
     55 C         -79.7261   21.9461  -73.5633 C.2       3 UNK         0.4895 
     56 O         -79.0164   20.9384  -73.5713 O.2       3 UNK        -0.5091 
     57 CA        -81.2506   21.7544  -73.4428 C.3       3 UNK         0.0250 
     58 CB        -81.5976   20.9927  -72.1507 C.3       3 UNK        -0.1996 
     59 N         -81.9835   23.0187  -73.4368 N.am      3 UNK        -0.4254 
     60 C         -82.6947   23.5003  -74.4654 C.2       2 UNK         0.5004 
     61 O         -82.8572   22.8962  -75.5265 O.2       2 UNK        -0.5226 
     62 CA        -83.3334   24.8956  -74.2997 C.3       2 UNK         0.0269 
     63 CB        -84.8440   24.7656  -74.0438 C.3       2 UNK        -0.1926 
     64 N         -82.7440   25.7344  -73.2474 N.am      2 UNK        -0.4687 
     65 C         -81.4556   26.1010  -73.1859 C.2       1 UNK         0.5165 
     66 O         -80.6158   25.7210  -73.9985 O.2       1 UNK        -0.5079 
     67 H67       -82.9511   24.2781  -68.9130 H         1 UNK         0.0900 
     68 H68       -82.6290   25.9483  -68.4404 H         1 UNK         0.0900 
     69 H69       -81.4258   24.6956  -68.1279 H         1 UNK         0.0900 
     70 H70       -82.0927   27.2229  -70.1785 H         1 UNK         0.2959 
     71 H71       -81.4892   27.9458  -72.1897 H         1 UNK         0.1079 
     72 H72       -79.0414   27.3052  -72.8809 H         1 UNK         0.0837 
     73 H73       -79.0246   26.2826  -71.4879 H         1 UNK         0.0837 
     74 H74       -80.4643   30.1101  -72.1007 H         1 UNK         0.0685 
     75 H75       -79.0724   30.9364  -71.4608 H         1 UNK         0.0685 
     76 H76       -80.4446   29.3012  -74.3780 H         1 UNK         0.1434 
     77 H77       -76.8742   29.6118  -76.7277 H         1 UNK         0.1329 
     78 H78       -76.7772   30.5164  -72.5312 H         1 UNK         0.1335 
     79 H79       -75.0541   31.4826  -74.8809 H         1 UNK         0.0680 
     80 H80       -74.7517   29.9551  -75.6688 H         1 UNK         0.0680 
     81 H81       -74.6241   27.7321  -74.4125 H         1 UNK         0.1032 
     82 H82       -75.1885   27.7767  -72.7635 H         1 UNK         0.1032 
     83 H83       -72.8016   27.7041  -71.9526 H         1 UNK         0.0461 
     84 H84       -73.8994   25.9595  -70.8768 H         1 UNK         0.3453 
     85 H85       -73.8740   24.3483  -71.5434 H         1 UNK         0.3453 
     86 H86       -72.1483   28.1830  -74.6567 H         1 UNK         0.2984 
     87 H87       -68.7471   28.2510  -74.0963 H         1 UNK         0.0554 
     88 H88       -68.7184   25.8634  -74.8243 H         1 UNK         0.0847 
     89 H89       -68.3436   26.9306  -76.1665 H         1 UNK         0.0847 
     90 H90       -69.9435   26.1992  -76.0379 H         1 UNK         0.0847 
     91 H91       -70.1013   28.6726  -76.5373 H         1 UNK         0.3141 
     92 H92       -71.7675   31.6226  -75.8656 H         1 UNK         0.0743 
     93 H93       -69.5400   32.7036  -75.8382 H         1 UNK         0.0784 
     94 H94       -68.9859   31.6775  -77.1506 H         1 UNK         0.0784 
     95 H95       -70.2705   32.8537  -77.4276 H         1 UNK         0.0784 
     96 H96       -72.4929   30.5058  -77.6106 H         1 UNK         0.3213 
     97 H97       -72.4821   29.9093  -79.8296 H         1 UNK         0.0855 
     98 H98       -70.3818   29.7737  -81.1808 H         1 UNK         0.0814 
     99 H99       -71.5516   28.5644  -81.6829 H         1 UNK         0.0814 
    100 H100      -70.1639   28.0973  -80.7004 H         1 UNK         0.0814 
    101 H101      -72.0015   27.0559  -79.5000 H         1 UNK         0.3105 
    102 H102      -74.0792   25.8819  -78.8367 H         1 UNK         0.0547 
    103 H103      -71.9486   25.6356  -77.5300 H         1 UNK         0.0837 
    104 H104      -72.7050   26.3641  -76.1214 H         1 UNK         0.0837 
    105 H105      -73.2399   24.7930  -76.6998 H         1 UNK         0.0837 
    106 H106      -75.4375   27.5818  -77.0313 H         1 UNK         0.3020 
    107 H107      -77.2507   26.9512  -75.7606 H         1 UNK         0.1245 
    108 H108      -78.7139   25.5415  -78.0540 H         1 UNK         0.0781 
    109 H109      -77.9793   27.1111  -78.2129 H         1 UNK         0.0781 
    110 H110      -80.4629   29.5569  -76.9492 H         1 UNK         0.0836 
    111 H111      -78.9996   29.2192  -77.8299 H         1 UNK         0.0836 
    112 H112      -78.4959   24.2880  -75.9007 H         1 UNK         0.3022 
    113 H113      -77.2386   22.7253  -74.0762 H         1 UNK         0.0747 
    114 H114      -76.2777   23.6780  -71.9713 H         1 UNK         0.0793 
    115 H115      -77.8824   24.1886  -71.4607 H         1 UNK         0.0793 
    116 H116      -77.5040   22.4761  -71.6198 H         1 UNK         0.0793 
    117 H117      -79.8488   23.9945  -73.6816 H         1 UNK         0.3047 
    118 H118      -81.5603   21.1389  -74.2899 H         1 UNK         0.0822 
    119 H119      -81.1119   20.0163  -72.1253 H         1 UNK         0.0807 
    120 H120      -82.6708   20.8200  -72.0686 H         1 UNK         0.0807 
    121 H121      -81.2771   21.5403  -71.2632 H         1 UNK         0.0807 
    122 H122      -81.8706   23.5916  -72.6069 H         1 UNK         0.2946 
    123 H123      -83.1878   25.4176  -75.2484 H         1 UNK         0.1144 
    124 H124      -85.3319   25.7404  -74.0349 H         1 UNK         0.0793 
    125 H125      -85.0501   24.2759  -73.0911 H         1 UNK         0.0793 
    126 H126      -85.3241   24.1739  -74.8247 H         1 UNK         0.0793 
    127 H127      -83.3665   26.0522  -72.5181 H         1 UNK         0.2896 
@<TRIPOS>BOND
     1    1    2 1    
     2    1   67 1    
     3    1   68 1    
     4    1   69 1    
     5    2    3 2    
     6    2    4 am   BACKBONE|DICT|INTERRES
     7    4    5 1    
     8    4   70 1    
     9    5    6 1    
    10    5   65 1    
    11    5   71 1    
    12    6    7 1    
    13    6   72 1    
    14    6   73 1    
    15    7    8 1    
    16    8    9 1    
    17    8   74 1    
    18    8   75 1    
    19    9   10 ar   
    20    9   14 ar   
    21   10   11 ar   
    22   10   76 1    
    23   11   12 ar   
    24   11   48 1    
    25   12   13 ar   
    26   12   77 1    
    27   13   14 ar   
    28   13   15 1    
    29   14   78 1    
    30   15   16 1    
    31   15   79 1    
    32   15   80 1    
    33   16   17 1    
    34   17   18 1    
    35   17   81 1    
    36   17   82 1    
    37   18   19 1    
    38   18   22 1    
    39   18   83 1    
    40   19   20 am   BACKBONE|DICT|INTERRES
    41   19   21 2    
    42   20   84 1    
    43   20   85 1    
    44   22   23 am   BACKBONE|DICT|INTERRES
    45   22   86 1    
    46   23   24 2    
    47   23   25 1    
    48   25   26 1    
    49   25   27 1    
    50   25   87 1    
    51   26   88 1    
    52   26   89 1    
    53   26   90 1    
    54   27   28 am   BACKBONE|DICT|INTERRES
    55   27   91 1    
    56   28   29 2    
    57   28   30 1    
    58   30   31 1    
    59   30   32 1    
    60   30   92 1    
    61   31   93 1    
    62   31   94 1    
    63   31   95 1    
    64   32   33 am   BACKBONE|DICT|INTERRES
    65   32   96 1    
    66   33   34 2    
    67   33   35 1    
    68   35   36 1    
    69   35   37 1    
    70   35   97 1    
    71   36   98 1    
    72   36   99 1    
    73   36  100 1    
    74   37   38 am   BACKBONE|DICT|INTERRES
    75   37  101 1    
    76   38   39 2    
    77   38   40 1    
    78   40   41 1    
    79   40   42 1    
    80   40  102 1    
    81   41  103 1    
    82   41  104 1    
    83   41  105 1    
    84   42   43 am   BACKBONE|DICT|INTERRES
    85   42  106 1    
    86   43   44 2    
    87   43   45 1    
    88   45   46 1    
    89   45   49 1    
    90   45  107 1    
    91   46   47 1    
    92   46  108 1    
    93   46  109 1    
    94   47   48 1    
    95   48  110 1    
    96   48  111 1    
    97   49   50 am   BACKBONE|DICT|INTERRES
    98   49  112 1    
    99   50   51 2    
   100   50   52 1    
   101   52   53 1    
   102   52   54 1    
   103   52  113 1    
   104   53  114 1    
   105   53  115 1    
   106   53  116 1    
   107   54   55 am   BACKBONE|DICT|INTERRES
   108   54  117 1    
   109   55   56 2    
   110   55   57 1    
   111   57   58 1    
   112   57   59 1    
   113   57  118 1    
   114   58  119 1    
   115   58  120 1    
   116   58  121 1    
   117   59   60 am   BACKBONE|DICT|INTERRES
   118   59  122 1    
   119   60   61 2    
   120   60   62 1    
   121   62   63 1    
   122   62   64 1    
   123   62  123 1    
   124   63  124 1    
   125   63  125 1    
   126   63  126 1    
   127   64   65 am   BACKBONE|DICT|INTERRES
   128   64  127 1    
   129   65   66 2    
@<TRIPOS>SUBSTRUCTURE
     1 UNK         1 GROUP             0       ****    0 ROOT    
