@<TRIPOS>MOLECULE
3R135
127   129    1
SMALL
USER_CHARGES


@<TRIPOS>ATOM
      1 CA        -83.1494   27.4376  -70.1072 C.3       0 UNK        -0.1998 
      2 C         -83.3180   27.4484  -71.6191 C.2       0 UNK         0.4909 
      3 O         -84.3872   27.0987  -72.1196 O.2       0 UNK        -0.5240 
      4 N         -82.2693   27.8498  -72.3488 N.am      1 UNK        -0.4739 
      5 CA        -82.2425   27.9109  -73.8158 C.3       1 UNK         0.0864 
      6 C6        -81.0515   28.7526  -74.3359 C.3       11 UNK        -0.0881 
      7 S7        -81.1656   30.5208  -73.8926 S.3       11 UNK        -0.2682 
      8 C8        -80.2846   30.6309  -72.2968 C.3       11 UNK         0.0289 
      9 C9        -78.9018   29.9923  -72.3221 C.ar      11 UNK        -0.0687 
     10 C10       -78.6085   28.9148  -71.4804 C.ar      11 UNK        -0.0823 
     11 C11       -77.3416   28.3230  -71.4889 C.ar      11 UNK        -0.0830 
     12 C12       -76.3584   28.8304  -72.3475 C.ar      11 UNK        -0.1021 
     13 C13       -76.6397   29.9062  -73.1949 C.ar      11 UNK        -0.0753 
     14 C14       -77.9118   30.4836  -73.1767 C.ar      11 UNK        -0.0933 
     15 C15       -75.5784   30.4427  -74.1415 C.3       11 UNK         0.0166 
     16 S16       -74.8324   31.9818  -73.5153 S.3       11 UNK        -0.2615 
     17 C17       -73.6662   31.3619  -72.2507 C.3       11 UNK        -0.0865 
     18 CA        -72.1801   31.5211  -72.6885 C.3       10 UNK         0.0862 
     19 C         -71.1719   31.2233  -71.5358 C.2       10 UNK         0.5551 
     20 N         -69.9832   30.7049  -71.8186 N.am      10 UNK        -0.7319 
     21 O         -71.4530   31.4997  -70.3719 O.2       10 UNK        -0.5018 
     22 N         -71.8950   30.8458  -73.9690 N.am      10 UNK        -0.4509 
     23 C         -71.9317   29.5255  -74.1909 C.2       10 UNK         0.4899 
     24 O         -72.1163   28.6866  -73.3071 O.2       10 UNK        -0.4839 
     25 CA        -71.7966   29.1038  -75.6661 C.3       9 UNK         0.0222 
     26 CB        -70.5144   29.6548  -76.3298 C.3       9 UNK        -0.1966 
     27 N         -71.9277   27.6565  -75.8627 N.am      9 UNK        -0.4218 
     28 C         -71.0604   26.6858  -75.5359 C.2       9 UNK         0.5020 
     29 O         -69.9488   26.8857  -75.0426 O.2       9 UNK        -0.5274 
     30 CA        -71.4903   25.2304  -75.8142 C.3       8 UNK         0.0270 
     31 CB        -71.7902   24.4971  -74.4961 C.3       8 UNK        -0.1976 
     32 N         -72.6455   25.1076  -76.7113 N.am      8 UNK        -0.4313 
     33 C         -72.6270   25.3799  -78.0241 C.2       8 UNK         0.5041 
     34 O         -71.6100   25.7006  -78.6404 O.2       8 UNK        -0.5577 
     35 CA        -73.9678   25.3094  -78.7762 C.3       7 UNK         0.0284 
     36 CB        -74.2334   23.8780  -79.2684 C.3       7 UNK        -0.1958 
     37 N         -75.1086   25.7823  -77.9841 N.am      7 UNK        -0.4454 
     38 C         -75.2752   27.0440  -77.5579 C.2       7 UNK         0.5089 
     39 O         -74.4943   27.9608  -77.8122 O.2       7 UNK        -0.5125 
     40 CA        -76.4855   27.3213  -76.6465 C.3       6 UNK         0.0408 
     41 CB        -77.7825   27.4448  -77.4601 C.3       6 UNK        -0.1791 
     42 N         -76.6484   26.3051  -75.6058 N.am      6 UNK        -0.4762 
     43 C         -75.7380   26.0417  -74.6563 C.2       6 UNK         0.5007 
     44 O         -74.6883   26.6697  -74.5255 O.2       6 UNK        -0.5032 
     45 CA        -76.0117   24.8249  -73.7524 C.3       5 UNK         0.0783 
     46 C46       -76.9137   25.1731  -72.5425 C.3       11 UNK        -0.0857 
     47 S47       -75.9375   25.8852  -71.1765 S.3       11 UNK        -0.2512 
     48 C48       -77.0558   27.1712  -70.5264 C.3       11 UNK         0.0225 
     49 N         -76.5365   23.6980  -74.5276 N.am      5 UNK        -0.4615 
     50 C         -75.8072   22.9797  -75.3925 C.2       4 UNK         0.5053 
     51 O         -74.6138   23.1820  -75.6118 O.2       4 UNK        -0.5105 
     52 CA        -76.5375   21.8707  -76.1672 C.3       4 UNK         0.0263 
     53 CB        -76.6229   20.5882  -75.3247 C.3       4 UNK        -0.1981 
     54 N         -77.8798   22.2694  -76.5952 N.am      4 UNK        -0.4224 
     55 C         -78.1297   23.2408  -77.4844 C.2       3 UNK         0.4895 
     56 O         -77.2551   23.8789  -78.0681 O.2       3 UNK        -0.5091 
     57 CA        -79.6050   23.5937  -77.7294 C.3       3 UNK         0.0250 
     58 CB        -80.2128   22.6654  -78.7929 C.3       3 UNK        -0.1996 
     59 N         -80.4334   23.5680  -76.5183 N.am      3 UNK        -0.4254 
     60 C         -80.2194   24.3200  -75.4298 C.2       2 UNK         0.5004 
     61 O         -79.2400   25.0553  -75.2786 O.2       2 UNK        -0.5226 
     62 CA        -81.2590   24.2178  -74.3028 C.3       2 UNK         0.0269 
     63 CB        -80.7332   23.3256  -73.1669 C.3       2 UNK        -0.1926 
     64 N         -81.5676   25.5448  -73.7693 N.am      2 UNK        -0.4687 
     65 C         -82.1982   26.5092  -74.4566 C.2       1 UNK         0.5165 
     66 O         -82.7173   26.3323  -75.5602 O.2       1 UNK        -0.5079 
     67 H67       -83.2917   26.4284  -69.7214 H         1 UNK         0.0900 
     68 H68       -83.8908   28.0874  -69.6430 H         1 UNK         0.0900 
     69 H69       -82.1608   27.7808  -69.8030 H         1 UNK         0.0900 
     70 H70       -81.4212   28.1365  -71.8856 H         1 UNK         0.2959 
     71 H71       -83.1689   28.3830  -74.1515 H         1 UNK         0.1079 
     72 H72       -80.1004   28.3318  -74.0058 H         1 UNK         0.0837 
     73 H73       -81.0167   28.7163  -75.4269 H         1 UNK         0.0837 
     74 H74       -80.1789   31.6840  -72.0325 H         1 UNK         0.0685 
     75 H75       -80.9056   30.1893  -71.5170 H         1 UNK         0.0685 
     76 H76       -79.3650   28.5414  -70.8043 H         1 UNK         0.1434 
     77 H77       -75.3713   28.3881  -72.3620 H         1 UNK         0.1329 
     78 H78       -78.1326   31.3173  -73.8293 H         1 UNK         0.1335 
     79 H79       -74.8075   29.6927  -74.3211 H         1 UNK         0.0680 
     80 H80       -76.0327   30.6454  -75.1124 H         1 UNK         0.0680 
     81 H81       -73.8853   30.3216  -72.0078 H         1 UNK         0.1032 
     82 H82       -73.8578   31.9260  -71.3364 H         1 UNK         0.1032 
     83 H83       -72.0286   32.5811  -72.8956 H         1 UNK         0.0461 
     84 H84       -69.7450   30.4713  -72.7690 H         1 UNK         0.3453 
     85 H85       -69.3302   30.5250  -71.0725 H         1 UNK         0.3453 
     86 H86       -71.7323   31.4629  -74.7512 H         1 UNK         0.2984 
     87 H87       -72.6512   29.5376  -76.1875 H         1 UNK         0.0554 
     88 H88       -70.4026   29.2779  -77.3466 H         1 UNK         0.0847 
     89 H89       -69.6172   29.3835  -75.7729 H         1 UNK         0.0847 
     90 H90       -70.5355   30.7427  -76.3961 H         1 UNK         0.0847 
     91 H91       -72.8313   27.3597  -76.2093 H         1 UNK         0.3141 
     92 H92       -70.6439   24.7323  -76.2916 H         1 UNK         0.0743 
     93 H93       -72.6296   24.9492  -73.9675 H         1 UNK         0.0784 
     94 H94       -72.0255   23.4468  -74.6688 H         1 UNK         0.0784 
     95 H95       -70.9299   24.5295  -73.8263 H         1 UNK         0.0784 
     96 H96       -73.5081   24.7683  -76.2968 H         1 UNK         0.3213 
     97 H97       -73.8852   25.9581  -79.6510 H         1 UNK         0.0855 
     98 H98       -74.3645   23.1837  -78.4378 H         1 UNK         0.0814 
     99 H99       -73.4028   23.5116  -79.8733 H         1 UNK         0.0814 
    100 H100      -75.1294   23.8316  -79.8876 H         1 UNK         0.0814 
    101 H101      -75.8359   25.0992  -77.7824 H         1 UNK         0.3105 
    102 H102      -76.3124   28.2752  -76.1448 H         1 UNK         0.0547 
    103 H103      -77.6993   28.2350  -78.2071 H         1 UNK         0.0837 
    104 H104      -78.0194   26.5210  -77.9874 H         1 UNK         0.0837 
    105 H105      -78.6298   27.6903  -76.8193 H         1 UNK         0.0837 
    106 H106      -77.5109   25.7645  -75.6156 H         1 UNK         0.3020 
    107 H107      -75.0421   24.5003  -73.3663 H         1 UNK         0.1245 
    108 H108      -77.3841   24.2707  -72.1494 H         1 UNK         0.0781 
    109 H109      -77.7323   25.8369  -72.8291 H         1 UNK         0.0781 
    110 H110      -76.6129   27.5860  -69.6202 H         1 UNK         0.0836 
    111 H111      -77.9855   26.6888  -70.2200 H         1 UNK         0.0836 
    112 H112      -77.5285   23.5245  -74.4605 H         1 UNK         0.3022 
    113 H113      -75.9513   21.6521  -77.0624 H         1 UNK         0.0747 
    114 H114      -77.0636   19.7690  -75.8931 H         1 UNK         0.0793 
    115 H115      -75.6302   20.2636  -75.0091 H         1 UNK         0.0793 
    116 H116      -77.2204   20.7323  -74.4236 H         1 UNK         0.0793 
    117 H117      -78.6618   21.7962  -76.1667 H         1 UNK         0.3047 
    118 H118      -79.6322   24.6144  -78.1165 H         1 UNK         0.0822 
    119 H119      -81.2241   22.9741  -79.0585 H         1 UNK         0.0807 
    120 H120      -80.2555   21.6302  -78.4520 H         1 UNK         0.0807 
    121 H121      -79.6209   22.6825  -79.7094 H         1 UNK         0.0807 
    122 H122      -81.2576   22.9850  -76.5524 H         1 UNK         0.2946 
    123 H123      -82.1803   23.7839  -74.6982 H         1 UNK         0.1144 
    124 H124      -80.5065   22.3220  -73.5294 H         1 UNK         0.0793 
    125 H125      -81.4714   23.2214  -72.3714 H         1 UNK         0.0793 
    126 H126      -79.8205   23.7278  -72.7256 H         1 UNK         0.0793 
    127 H127      -81.1606   25.7838  -72.8779 H         1 UNK         0.2896 
@<TRIPOS>BOND
     1    1    2 1    
     2    1   67 1    
     3    1   68 1    
     4    1   69 1    
     5    2    3 2    
     6    2    4 am   BACKBONE|DICT|INTERRES
     7    4    5 1    
     8    4   70 1    
     9    5    6 1    
    10    5   65 1    
    11    5   71 1    
    12    6    7 1    
    13    6   72 1    
    14    6   73 1    
    15    7    8 1    
    16    8    9 1    
    17    8   74 1    
    18    8   75 1    
    19    9   10 ar   
    20    9   14 ar   
    21   10   11 ar   
    22   10   76 1    
    23   11   12 ar   
    24   11   48 1    
    25   12   13 ar   
    26   12   77 1    
    27   13   14 ar   
    28   13   15 1    
    29   14   78 1    
    30   15   16 1    
    31   15   79 1    
    32   15   80 1    
    33   16   17 1    
    34   17   18 1    
    35   17   81 1    
    36   17   82 1    
    37   18   19 1    
    38   18   22 1    
    39   18   83 1    
    40   19   20 am   BACKBONE|DICT|INTERRES
    41   19   21 2    
    42   20   84 1    
    43   20   85 1    
    44   22   23 am   BACKBONE|DICT|INTERRES
    45   22   86 1    
    46   23   24 2    
    47   23   25 1    
    48   25   26 1    
    49   25   27 1    
    50   25   87 1    
    51   26   88 1    
    52   26   89 1    
    53   26   90 1    
    54   27   28 am   BACKBONE|DICT|INTERRES
    55   27   91 1    
    56   28   29 2    
    57   28   30 1    
    58   30   31 1    
    59   30   32 1    
    60   30   92 1    
    61   31   93 1    
    62   31   94 1    
    63   31   95 1    
    64   32   33 am   BACKBONE|DICT|INTERRES
    65   32   96 1    
    66   33   34 2    
    67   33   35 1    
    68   35   36 1    
    69   35   37 1    
    70   35   97 1    
    71   36   98 1    
    72   36   99 1    
    73   36  100 1    
    74   37   38 am   BACKBONE|DICT|INTERRES
    75   37  101 1    
    76   38   39 2    
    77   38   40 1    
    78   40   41 1    
    79   40   42 1    
    80   40  102 1    
    81   41  103 1    
    82   41  104 1    
    83   41  105 1    
    84   42   43 am   BACKBONE|DICT|INTERRES
    85   42  106 1    
    86   43   44 2    
    87   43   45 1    
    88   45   46 1    
    89   45   49 1    
    90   45  107 1    
    91   46   47 1    
    92   46  108 1    
    93   46  109 1    
    94   47   48 1    
    95   48  110 1    
    96   48  111 1    
    97   49   50 am   BACKBONE|DICT|INTERRES
    98   49  112 1    
    99   50   51 2    
   100   50   52 1    
   101   52   53 1    
   102   52   54 1    
   103   52  113 1    
   104   53  114 1    
   105   53  115 1    
   106   53  116 1    
   107   54   55 am   BACKBONE|DICT|INTERRES
   108   54  117 1    
   109   55   56 2    
   110   55   57 1    
   111   57   58 1    
   112   57   59 1    
   113   57  118 1    
   114   58  119 1    
   115   58  120 1    
   116   58  121 1    
   117   59   60 am   BACKBONE|DICT|INTERRES
   118   59  122 1    
   119   60   61 2    
   120   60   62 1    
   121   62   63 1    
   122   62   64 1    
   123   62  123 1    
   124   63  124 1    
   125   63  125 1    
   126   63  126 1    
   127   64   65 am   BACKBONE|DICT|INTERRES
   128   64  127 1    
   129   65   66 2    
@<TRIPOS>SUBSTRUCTURE
     1 UNK         1 GROUP             0       ****    0 ROOT    
