@<TRIPOS>MOLECULE
3R135
127   129    1
SMALL
USER_CHARGES


@<TRIPOS>ATOM
      1 CA        -82.5703   31.1512  -78.1042 C.3       0 UNK        -0.1998 
      2 C         -81.9216   29.9626  -77.4106 C.2       0 UNK         0.4909 
      3 O         -82.0316   28.8357  -77.8955 O.2       0 UNK        -0.5240 
      4 N         -81.2397   30.2049  -76.2837 N.am      1 UNK        -0.4739 
      5 CA        -80.6115   29.1739  -75.4526 C.3       1 UNK         0.0864 
      6 C6        -79.5883   29.7994  -74.4731 C.3       11 UNK        -0.0881 
      7 S7        -78.3279   28.6066  -73.9154 S.3       11 UNK        -0.2682 
      8 C8        -78.7188   28.4456  -72.1469 C.3       11 UNK         0.0289 
      9 C9        -77.5332   27.8583  -71.3990 C.ar      11 UNK        -0.0687 
     10 C10       -77.4724   26.4932  -71.1021 C.ar      11 UNK        -0.0823 
     11 C11       -76.3578   25.9635  -70.4412 C.ar      11 UNK        -0.0830 
     12 C12       -75.2963   26.8063  -70.0965 C.ar      11 UNK        -0.1021 
     13 C13       -75.3506   28.1735  -70.3820 C.ar      11 UNK        -0.0753 
     14 C14       -76.4822   28.6942  -71.0146 C.ar      11 UNK        -0.0933 
     15 C15       -74.1950   29.0849  -69.9915 C.3       11 UNK         0.0166 
     16 S16       -73.1286   29.4919  -71.4134 S.3       11 UNK        -0.2615 
     17 C17       -74.0522   30.8584  -72.2016 C.3       11 UNK        -0.0865 
     18 CA        -74.6862   30.4523  -73.5660 C.3       10 UNK         0.0862 
     19 C         -75.7372   31.4850  -74.0783 C.2       10 UNK         0.5551 
     20 N         -75.8983   31.6691  -75.3835 N.am      10 UNK        -0.7319 
     21 O         -76.4387   32.1091  -73.2861 O.2       10 UNK        -0.5018 
     22 N         -73.6840   30.0508  -74.5689 N.am      10 UNK        -0.4509 
     23 C         -72.7109   30.8194  -75.0798 C.2       10 UNK         0.4899 
     24 O         -72.5226   31.9969  -74.7705 O.2       10 UNK        -0.4839 
     25 CA        -71.8137   30.1503  -76.1358 C.3       9 UNK         0.0222 
     26 CB        -70.5027   30.9174  -76.4144 C.3       9 UNK        -0.1966 
     27 N         -71.5797   28.7334  -75.8357 N.am      9 UNK        -0.4218 
     28 C         -70.8210   28.1987  -74.8641 C.2       9 UNK         0.5020 
     29 O         -70.1062   28.8613  -74.1112 O.2       9 UNK        -0.5274 
     30 CA        -70.8688   26.6641  -74.6763 C.3       8 UNK         0.0270 
     31 CB        -71.2757   26.3087  -73.2349 C.3       8 UNK        -0.1976 
     32 N         -71.7770   25.9798  -75.6039 N.am      8 UNK        -0.4313 
     33 C         -71.5457   25.7909  -76.9127 C.2       8 UNK         0.5041 
     34 O         -70.4687   26.0466  -77.4518 O.2       8 UNK        -0.5577 
     35 CA        -72.7151   25.2923  -77.7876 C.3       7 UNK         0.0284 
     36 CB        -72.5096   23.8162  -78.1621 C.3       7 UNK        -0.1958 
     37 N         -74.0425   25.4620  -77.1828 N.am      7 UNK        -0.4454 
     38 C         -74.5880   26.6328  -76.8107 C.2       7 UNK         0.5089 
     39 O         -74.0548   27.7237  -77.0148 O.2       7 UNK        -0.5125 
     40 CA        -75.9082   26.5926  -76.0151 C.3       6 UNK         0.0408 
     41 CB        -77.0884   26.9044  -76.9478 C.3       6 UNK        -0.1791 
     42 N         -76.1662   25.3276  -75.3173 N.am      6 UNK        -0.4762 
     43 C         -75.3393   24.7207  -74.4469 C.2       6 UNK         0.5007 
     44 O         -74.2689   25.2090  -74.0832 O.2       6 UNK        -0.5032 
     45 CA        -75.7158   23.2893  -73.9880 C.3       5 UNK         0.0783 
     46 C46       -76.4209   23.2955  -72.6098 C.3       11 UNK        -0.0857 
     47 S47       -75.2719   23.5245  -71.2153 S.3       11 UNK        -0.2512 
     48 C48       -76.3016   24.4893  -70.0658 C.3       11 UNK         0.0225 
     49 N         -76.5374   22.5627  -74.9637 N.am      5 UNK        -0.4615 
     50 C         -76.2741   22.3698  -76.2637 C.2       4 UNK         0.5053 
     51 O         -75.2047   22.6684  -76.7939 O.2       4 UNK        -0.5105 
     52 CA        -77.4225   21.8204  -77.1359 C.3       4 UNK         0.0263 
     53 CB        -77.1684   20.3447  -77.4829 C.3       4 UNK        -0.1981 
     54 N         -78.7688   21.9542  -76.5540 N.am      4 UNK        -0.4224 
     55 C         -79.3442   23.0947  -76.1415 C.2       3 UNK         0.4895 
     56 O         -78.7956   24.1995  -76.2048 O.2       3 UNK        -0.5091 
     57 CA        -80.7312   22.9741  -75.4919 C.3       3 UNK         0.0250 
     58 CB        -80.7698   21.8825  -74.3992 C.3       3 UNK        -0.1996 
     59 N         -81.0722   24.2698  -74.9110 N.am      3 UNK        -0.4254 
     60 C         -82.2955   24.6905  -74.5704 C.2       2 UNK         0.5004 
     61 O         -83.3181   24.0205  -74.7183 O.2       2 UNK        -0.5226 
     62 CA        -82.3982   26.0968  -73.9670 C.3       2 UNK         0.0269 
     63 CB        -82.1317   26.0611  -72.4502 C.3       2 UNK        -0.1926 
     64 N         -81.4823   27.0342  -74.6230 N.am      2 UNK        -0.4687 
     65 C         -81.6841   28.3538  -74.7053 C.2       1 UNK         0.5165 
     66 O         -82.6532   28.9317  -74.2048 O.2       1 UNK        -0.5079 
     67 H67       -82.3769   32.0859  -77.5783 H         1 UNK         0.0900 
     68 H68       -83.6493   31.0099  -78.1591 H         1 UNK         0.0900 
     69 H69       -82.1870   31.2483  -79.1196 H         1 UNK         0.0900 
     70 H70       -81.2124   31.1445  -75.9140 H         1 UNK         0.2959 
     71 H71       -80.0753   28.5065  -76.1316 H         1 UNK         0.1079 
     72 H72       -79.0404   30.6004  -74.9725 H         1 UNK         0.0837 
     73 H73       -80.0840   30.2722  -73.6230 H         1 UNK         0.0837 
     74 H74       -79.6066   27.8241  -72.0238 H         1 UNK         0.0685 
     75 H75       -78.9604   29.4239  -71.7285 H         1 UNK         0.0685 
     76 H76       -78.2929   25.8477  -71.3830 H         1 UNK         0.1434 
     77 H77       -74.4290   26.3953  -69.5977 H         1 UNK         0.1329 
     78 H78       -76.5417   29.7503  -71.2337 H         1 UNK         0.1335 
     79 H79       -74.5736   29.9969  -69.5279 H         1 UNK         0.0680 
     80 H80       -73.5795   28.5996  -69.2325 H         1 UNK         0.0680 
     81 H81       -74.8121   31.2161  -71.5067 H         1 UNK         0.1032 
     82 H82       -73.3736   31.7023  -72.3298 H         1 UNK         0.1032 
     83 H83       -75.2724   29.5501  -73.3925 H         1 UNK         0.0461 
     84 H84       -75.3395   31.1541  -76.0439 H         1 UNK         0.3453 
     85 H85       -76.5831   32.3330  -75.7075 H         1 UNK         0.3453 
     86 H86       -73.7700   29.1069  -74.9163 H         1 UNK         0.2984 
     87 H87       -72.3907   30.1590  -77.0616 H         1 UNK         0.0554 
     88 H88       -69.8868   30.3994  -77.1494 H         1 UNK         0.0847 
     89 H89       -69.9079   31.0525  -75.5108 H         1 UNK         0.0847 
     90 H90       -70.7124   31.9116  -76.8106 H         1 UNK         0.0847 
     91 H91       -72.1637   28.0989  -76.3703 H         1 UNK         0.3141 
     92 H92       -69.8584   26.2874  -74.8475 H         1 UNK         0.0743 
     93 H93       -72.2593   26.7095  -72.9846 H         1 UNK         0.0784 
     94 H94       -71.3053   25.2297  -73.0821 H         1 UNK         0.0784 
     95 H95       -70.5674   26.7182  -72.5136 H         1 UNK         0.0784 
     96 H96       -72.6841   25.7192  -75.2251 H         1 UNK         0.3213 
     97 H97       -72.7007   25.8828  -78.7060 H         1 UNK         0.0855 
     98 H98       -72.5184   23.1731  -77.2811 H         1 UNK         0.0814 
     99 H99       -71.5523   23.6688  -78.6641 H         1 UNK         0.0814 
    100 H100      -73.2876   23.4655  -78.8406 H         1 UNK         0.0814 
    101 H101      -74.5465   24.6065  -76.9692 H         1 UNK         0.3105 
    102 H102      -75.8522   27.3732  -75.2542 H         1 UNK         0.0547 
    103 H103      -76.9620   27.8755  -77.4282 H         1 UNK         0.0837 
    104 H104      -77.1865   26.1568  -77.7360 H         1 UNK         0.0837 
    105 H105      -78.0306   26.9343  -76.4020 H         1 UNK         0.0837 
    106 H106      -77.0247   24.8496  -75.5764 H         1 UNK         0.3020 
    107 H107      -74.7807   22.7312  -73.9027 H         1 UNK         0.1245 
    108 H108      -76.9159   22.3385  -72.4356 H         1 UNK         0.0781 
    109 H109      -77.2134   24.0446  -72.5854 H         1 UNK         0.0781 
    110 H110      -75.8869   24.3908  -69.0614 H         1 UNK         0.0836 
    111 H111      -77.3039   24.0604  -70.0184 H         1 UNK         0.0836 
    112 H112      -77.4462   22.2723  -74.6375 H         1 UNK         0.3022 
    113 H113      -77.4146   22.3965  -78.0634 H         1 UNK         0.0747 
    114 H114      -77.9079   19.9690  -78.1904 H         1 UNK         0.0793 
    115 H115      -76.1883   20.2146  -77.9446 H         1 UNK         0.0793 
    116 H116      -77.1972   19.7107  -76.5958 H         1 UNK         0.0793 
    117 H117      -79.2936   21.0966  -76.4578 H         1 UNK         0.3047 
    118 H118      -81.4495   22.7355  -76.2790 H         1 UNK         0.0822 
    119 H119      -80.5832   20.8904  -74.8110 H         1 UNK         0.0807 
    120 H120      -81.7455   21.8377  -73.9152 H         1 UNK         0.0807 
    121 H121      -80.0258   22.0639  -73.6224 H         1 UNK         0.0807 
    122 H122      -80.2725   24.8780  -74.7988 H         1 UNK         0.2946 
    123 H123      -83.4249   26.4336  -74.1312 H         1 UNK         0.1144 
    124 H124      -82.8033   25.3601  -71.9527 H         1 UNK         0.0793 
    125 H125      -82.2914   27.0384  -71.9944 H         1 UNK         0.0793 
    126 H126      -81.1107   25.7497  -72.2270 H         1 UNK         0.0793 
    127 H127      -80.6866   26.6362  -75.0997 H         1 UNK         0.2896 
@<TRIPOS>BOND
     1    1    2 1    
     2    1   67 1    
     3    1   68 1    
     4    1   69 1    
     5    2    3 2    
     6    2    4 am   BACKBONE|DICT|INTERRES
     7    4    5 1    
     8    4   70 1    
     9    5    6 1    
    10    5   65 1    
    11    5   71 1    
    12    6    7 1    
    13    6   72 1    
    14    6   73 1    
    15    7    8 1    
    16    8    9 1    
    17    8   74 1    
    18    8   75 1    
    19    9   10 ar   
    20    9   14 ar   
    21   10   11 ar   
    22   10   76 1    
    23   11   12 ar   
    24   11   48 1    
    25   12   13 ar   
    26   12   77 1    
    27   13   14 ar   
    28   13   15 1    
    29   14   78 1    
    30   15   16 1    
    31   15   79 1    
    32   15   80 1    
    33   16   17 1    
    34   17   18 1    
    35   17   81 1    
    36   17   82 1    
    37   18   19 1    
    38   18   22 1    
    39   18   83 1    
    40   19   20 am   BACKBONE|DICT|INTERRES
    41   19   21 2    
    42   20   84 1    
    43   20   85 1    
    44   22   23 am   BACKBONE|DICT|INTERRES
    45   22   86 1    
    46   23   24 2    
    47   23   25 1    
    48   25   26 1    
    49   25   27 1    
    50   25   87 1    
    51   26   88 1    
    52   26   89 1    
    53   26   90 1    
    54   27   28 am   BACKBONE|DICT|INTERRES
    55   27   91 1    
    56   28   29 2    
    57   28   30 1    
    58   30   31 1    
    59   30   32 1    
    60   30   92 1    
    61   31   93 1    
    62   31   94 1    
    63   31   95 1    
    64   32   33 am   BACKBONE|DICT|INTERRES
    65   32   96 1    
    66   33   34 2    
    67   33   35 1    
    68   35   36 1    
    69   35   37 1    
    70   35   97 1    
    71   36   98 1    
    72   36   99 1    
    73   36  100 1    
    74   37   38 am   BACKBONE|DICT|INTERRES
    75   37  101 1    
    76   38   39 2    
    77   38   40 1    
    78   40   41 1    
    79   40   42 1    
    80   40  102 1    
    81   41  103 1    
    82   41  104 1    
    83   41  105 1    
    84   42   43 am   BACKBONE|DICT|INTERRES
    85   42  106 1    
    86   43   44 2    
    87   43   45 1    
    88   45   46 1    
    89   45   49 1    
    90   45  107 1    
    91   46   47 1    
    92   46  108 1    
    93   46  109 1    
    94   47   48 1    
    95   48  110 1    
    96   48  111 1    
    97   49   50 am   BACKBONE|DICT|INTERRES
    98   49  112 1    
    99   50   51 2    
   100   50   52 1    
   101   52   53 1    
   102   52   54 1    
   103   52  113 1    
   104   53  114 1    
   105   53  115 1    
   106   53  116 1    
   107   54   55 am   BACKBONE|DICT|INTERRES
   108   54  117 1    
   109   55   56 2    
   110   55   57 1    
   111   57   58 1    
   112   57   59 1    
   113   57  118 1    
   114   58  119 1    
   115   58  120 1    
   116   58  121 1    
   117   59   60 am   BACKBONE|DICT|INTERRES
   118   59  122 1    
   119   60   61 2    
   120   60   62 1    
   121   62   63 1    
   122   62   64 1    
   123   62  123 1    
   124   63  124 1    
   125   63  125 1    
   126   63  126 1    
   127   64   65 am   BACKBONE|DICT|INTERRES
   128   64  127 1    
   129   65   66 2    
@<TRIPOS>SUBSTRUCTURE
     1 UNK         1 GROUP             0       ****    0 ROOT    
