@<TRIPOS>MOLECULE
3R135
127   129    1
SMALL
USER_CHARGES


@<TRIPOS>ATOM
      1 CA        -84.0298   31.2915  -71.7405 C.3       0 UNK        -0.1998 
      2 C         -83.3221   30.0361  -72.2281 C.2       0 UNK         0.4909 
      3 O         -83.9779   29.1313  -72.7449 O.2       0 UNK        -0.5240 
      4 N         -81.9912   29.9846  -72.0683 N.am      1 UNK        -0.4739 
      5 CA        -81.1046   28.8718  -72.4471 C.3       1 UNK         0.0864 
      6 C6        -81.3507   27.5741  -71.6250 C.3       11 UNK        -0.0881 
      7 S7        -81.0414   27.8041  -69.8410 S.3       11 UNK        -0.2682 
      8 C8        -79.9657   26.3707  -69.4615 C.3       11 UNK         0.0289 
      9 C9        -78.5634   26.3801  -70.0807 C.ar      11 UNK        -0.0687 
     10 C10       -77.7768   25.2281  -69.9622 C.ar      11 UNK        -0.0823 
     11 C11       -76.4774   25.1862  -70.4794 C.ar      11 UNK        -0.0830 
     12 C12       -75.9716   26.3013  -71.1530 C.ar      11 UNK        -0.1021 
     13 C13       -76.7449   27.4560  -71.2894 C.ar      11 UNK        -0.0753 
     14 C14       -78.0253   27.4965  -70.7339 C.ar      11 UNK        -0.0933 
     15 C15       -76.1860   28.6790  -71.9968 C.3       11 UNK         0.0166 
     16 S16       -76.9023   28.8896  -73.6577 S.3       11 UNK        -0.2615 
     17 C17       -76.0400   30.4214  -74.1618 C.3       11 UNK        -0.0865 
     18 CA        -75.6296   30.4795  -75.6585 C.3       10 UNK         0.0862 
     19 C         -74.7980   31.7698  -75.9269 C.2       10 UNK         0.5551 
     20 N         -73.4912   31.6825  -76.1534 N.am      10 UNK        -0.7319 
     21 O         -75.3496   32.8673  -75.9189 O.2       10 UNK        -0.5018 
     22 N         -74.9884   29.2359  -76.1078 N.am      10 UNK        -0.4509 
     23 C         -74.6877   28.9292  -77.3772 C.2       10 UNK         0.4899 
     24 O         -75.0192   29.6156  -78.3443 O.2       10 UNK        -0.4839 
     25 CA        -73.8750   27.6373  -77.6024 C.3       9 UNK         0.0222 
     26 CB        -72.9440   27.7354  -78.8281 C.3       9 UNK        -0.1966 
     27 N         -73.1240   27.1941  -76.4201 N.am      9 UNK        -0.4218 
     28 C         -72.1824   27.8681  -75.7384 C.2       9 UNK         0.5020 
     29 O         -71.8035   29.0060  -76.0205 O.2       9 UNK        -0.5274 
     30 CA        -71.5991   27.1616  -74.5066 C.3       8 UNK         0.0270 
     31 CB        -72.5586   27.2951  -73.3109 C.3       8 UNK        -0.1976 
     32 N         -71.3560   25.7451  -74.7829 N.am      8 UNK        -0.4313 
     33 C         -70.1941   25.2446  -75.2257 C.2       8 UNK         0.5041 
     34 O         -69.1651   25.9085  -75.3579 O.2       8 UNK        -0.5577 
     35 CA        -70.1716   23.7476  -75.5896 C.3       7 UNK         0.0284 
     36 CB        -69.7542   22.9044  -74.3738 C.3       7 UNK        -0.1958 
     37 N         -71.4572   23.2624  -76.0987 N.am      7 UNK        -0.4454 
     38 C         -71.9992   23.6256  -77.2700 C.2       7 UNK         0.5089 
     39 O         -71.4248   24.3299  -78.0997 O.2       7 UNK        -0.5125 
     40 CA        -73.4347   23.1458  -77.5586 C.3       6 UNK         0.0408 
     41 CB        -73.4128   21.9311  -78.4999 C.3       6 UNK        -0.1791 
     42 N         -74.2291   22.8193  -76.3656 N.am      6 UNK        -0.4762 
     43 C         -74.5571   23.6849  -75.3960 C.2       6 UNK         0.5007 
     44 O         -74.1581   24.8510  -75.3570 O.2       6 UNK        -0.5032 
     45 CA        -75.4648   23.1717  -74.2730 C.3       5 UNK         0.0783 
     46 C46       -74.7867   23.3375  -72.8923 C.3       11 UNK        -0.0857 
     47 S47       -75.8247   22.6900  -71.5380 S.3       11 UNK        -0.2512 
     48 C48       -75.6032   23.9594  -70.2530 C.3       11 UNK         0.0225 
     49 N         -76.7200   23.9123  -74.3738 N.am      5 UNK        -0.4615 
     50 C         -77.8871   23.3671  -74.7301 C.2       4 UNK         0.5053 
     51 O         -78.0434   22.1692  -74.9721 O.2       4 UNK        -0.5105 
     52 CA        -79.0940   24.3123  -74.8395 C.3       4 UNK         0.0263 
     53 CB        -79.7524   24.4760  -73.4603 C.3       4 UNK        -0.1981 
     54 N         -78.8065   25.6353  -75.4113 N.am      4 UNK        -0.4224 
     55 C         -78.2720   25.8617  -76.6235 C.2       3 UNK         0.4895 
     56 O         -77.8756   24.9660  -77.3704 O.2       3 UNK        -0.5091 
     57 CA        -78.2234   27.3248  -77.1014 C.3       3 UNK         0.0250 
     58 CB        -77.9127   27.4520  -78.6094 C.3       3 UNK        -0.1996 
     59 N         -79.4812   27.9922  -76.7668 N.am      3 UNK        -0.4254 
     60 C         -79.7159   29.3089  -76.7612 C.2       2 UNK         0.5004 
     61 O         -78.9088   30.1605  -77.1296 O.2       2 UNK        -0.5226 
     62 CA        -81.0870   29.7615  -76.2281 C.3       2 UNK         0.0269 
     63 CB        -82.2631   29.0155  -76.8951 C.3       2 UNK        -0.1926 
     64 N         -81.1672   29.7022  -74.7618 N.am      2 UNK        -0.4687 
     65 C         -81.0774   28.6197  -73.9719 C.2       1 UNK         0.5165 
     66 O         -80.9559   27.4717  -74.4028 O.2       1 UNK        -0.5079 
     67 H67       -84.5452   31.7773  -72.5686 H         1 UNK         0.0900 
     68 H68       -84.7692   31.0339  -70.9827 H         1 UNK         0.0900 
     69 H69       -83.3352   32.0097  -71.3050 H         1 UNK         0.0900 
     70 H70       -81.5266   30.7668  -71.6277 H         1 UNK         0.2959 
     71 H71       -80.0951   29.2161  -72.2242 H         1 UNK         0.1079 
     72 H72       -80.6976   26.7751  -71.9745 H         1 UNK         0.0837 
     73 H73       -82.3691   27.2090  -71.7647 H         1 UNK         0.0837 
     74 H74       -79.8576   26.3117  -68.3778 H         1 UNK         0.0685 
     75 H75       -80.4866   25.4619  -69.7676 H         1 UNK         0.0685 
     76 H76       -78.1697   24.3645  -69.4426 H         1 UNK         0.1434 
     77 H77       -74.9655   26.2840  -71.5462 H         1 UNK         0.1329 
     78 H78       -78.5880   28.4127  -70.8106 H         1 UNK         0.1335 
     79 H79       -75.1005   28.6065  -72.0775 H         1 UNK         0.0680 
     80 H80       -76.3924   29.5687  -71.3997 H         1 UNK         0.0680 
     81 H81       -75.1540   30.5472  -73.5360 H         1 UNK         0.1032 
     82 H82       -76.6924   31.2635  -73.9229 H         1 UNK         0.1032 
     83 H83       -76.5422   30.5815  -76.2446 H         1 UNK         0.0461 
     84 H84       -72.9626   32.5228  -76.3249 H         1 UNK         0.3453 
     85 H85       -73.0251   30.7832  -76.1562 H         1 UNK         0.3453 
     86 H86       -74.6930   28.6058  -75.3786 H         1 UNK         0.2984 
     87 H87       -74.6054   26.8520  -77.8026 H         1 UNK         0.0554 
     88 H88       -73.5116   27.9251  -79.7398 H         1 UNK         0.0847 
     89 H89       -72.3909   26.8086  -78.9808 H         1 UNK         0.0847 
     90 H90       -72.2201   28.5438  -78.7209 H         1 UNK         0.0847 
     91 H91       -73.4181   26.2905  -76.0503 H         1 UNK         0.3141 
     92 H92       -70.6609   27.6559  -74.2448 H         1 UNK         0.0743 
     93 H93       -72.7345   28.3445  -73.0703 H         1 UNK         0.0784 
     94 H94       -73.5286   26.8385  -73.5113 H         1 UNK         0.0784 
     95 H95       -72.1458   26.8242  -72.4186 H         1 UNK         0.0784 
     96 H96       -72.1629   25.1346  -74.7524 H         1 UNK         0.3213 
     97 H97       -69.4242   23.6110  -76.3745 H         1 UNK         0.0855 
     98 H98       -70.4723   22.9860  -73.5569 H         1 UNK         0.0814 
     99 H99       -68.7862   23.2294  -73.9894 H         1 UNK         0.0814 
    100 H100      -69.6587   21.8502  -74.6349 H         1 UNK         0.0814 
    101 H101      -71.9910   22.6514  -75.4982 H         1 UNK         0.3105 
    102 H102      -73.9451   23.9632  -78.0729 H         1 UNK         0.0547 
    103 H103      -72.8543   22.1525  -79.4106 H         1 UNK         0.0837 
    104 H104      -74.4197   21.6446  -78.8038 H         1 UNK         0.0837 
    105 H105      -72.9419   21.0654  -78.0324 H         1 UNK         0.0837 
    106 H106      -74.6003   21.8801  -76.3243 H         1 UNK         0.3020 
    107 H107      -75.6349   22.1038  -74.4277 H         1 UNK         0.1245 
    108 H108      -74.5445   24.3836  -72.7068 H         1 UNK         0.0781 
    109 H109      -73.8373   22.7993  -72.8662 H         1 UNK         0.0781 
    110 H110      -74.5512   24.2432  -70.1935 H         1 UNK         0.0836 
    111 H111      -75.8449   23.5163  -69.2857 H         1 UNK         0.0836 
    112 H112      -76.6645   24.9096  -74.2272 H         1 UNK         0.3022 
    113 H113      -79.8162   23.8303  -75.5015 H         1 UNK         0.0747 
    114 H114      -79.9227   23.5080  -72.9865 H         1 UNK         0.0793 
    115 H115      -79.1285   25.0627  -72.7847 H         1 UNK         0.0793 
    116 H116      -80.7233   24.9633  -73.5420 H         1 UNK         0.0793 
    117 H117      -79.1489   26.4260  -74.8779 H         1 UNK         0.3047 
    118 H118      -77.4242   27.8102  -76.5398 H         1 UNK         0.0822 
    119 H119      -77.7942   28.4929  -78.9101 H         1 UNK         0.0807 
    120 H120      -78.7033   27.0135  -79.2189 H         1 UNK         0.0807 
    121 H121      -76.9814   26.9449  -78.8644 H         1 UNK         0.0807 
    122 H122      -80.2046   27.3992  -76.3746 H         1 UNK         0.2946 
    123 H123      -81.1855   30.8155  -76.4949 H         1 UNK         0.1144 
    124 H124      -82.2869   27.9549  -76.6448 H         1 UNK         0.0793 
    125 H125      -82.2044   29.0911  -77.9817 H         1 UNK         0.0793 
    126 H126      -83.2185   29.4449  -76.5934 H         1 UNK         0.0793 
    127 H127      -81.2521   30.5974  -74.3007 H         1 UNK         0.2896 
@<TRIPOS>BOND
     1    1    2 1    
     2    1   67 1    
     3    1   68 1    
     4    1   69 1    
     5    2    3 2    
     6    2    4 am   BACKBONE|DICT|INTERRES
     7    4    5 1    
     8    4   70 1    
     9    5    6 1    
    10    5   65 1    
    11    5   71 1    
    12    6    7 1    
    13    6   72 1    
    14    6   73 1    
    15    7    8 1    
    16    8    9 1    
    17    8   74 1    
    18    8   75 1    
    19    9   10 ar   
    20    9   14 ar   
    21   10   11 ar   
    22   10   76 1    
    23   11   12 ar   
    24   11   48 1    
    25   12   13 ar   
    26   12   77 1    
    27   13   14 ar   
    28   13   15 1    
    29   14   78 1    
    30   15   16 1    
    31   15   79 1    
    32   15   80 1    
    33   16   17 1    
    34   17   18 1    
    35   17   81 1    
    36   17   82 1    
    37   18   19 1    
    38   18   22 1    
    39   18   83 1    
    40   19   20 am   BACKBONE|DICT|INTERRES
    41   19   21 2    
    42   20   84 1    
    43   20   85 1    
    44   22   23 am   BACKBONE|DICT|INTERRES
    45   22   86 1    
    46   23   24 2    
    47   23   25 1    
    48   25   26 1    
    49   25   27 1    
    50   25   87 1    
    51   26   88 1    
    52   26   89 1    
    53   26   90 1    
    54   27   28 am   BACKBONE|DICT|INTERRES
    55   27   91 1    
    56   28   29 2    
    57   28   30 1    
    58   30   31 1    
    59   30   32 1    
    60   30   92 1    
    61   31   93 1    
    62   31   94 1    
    63   31   95 1    
    64   32   33 am   BACKBONE|DICT|INTERRES
    65   32   96 1    
    66   33   34 2    
    67   33   35 1    
    68   35   36 1    
    69   35   37 1    
    70   35   97 1    
    71   36   98 1    
    72   36   99 1    
    73   36  100 1    
    74   37   38 am   BACKBONE|DICT|INTERRES
    75   37  101 1    
    76   38   39 2    
    77   38   40 1    
    78   40   41 1    
    79   40   42 1    
    80   40  102 1    
    81   41  103 1    
    82   41  104 1    
    83   41  105 1    
    84   42   43 am   BACKBONE|DICT|INTERRES
    85   42  106 1    
    86   43   44 2    
    87   43   45 1    
    88   45   46 1    
    89   45   49 1    
    90   45  107 1    
    91   46   47 1    
    92   46  108 1    
    93   46  109 1    
    94   47   48 1    
    95   48  110 1    
    96   48  111 1    
    97   49   50 am   BACKBONE|DICT|INTERRES
    98   49  112 1    
    99   50   51 2    
   100   50   52 1    
   101   52   53 1    
   102   52   54 1    
   103   52  113 1    
   104   53  114 1    
   105   53  115 1    
   106   53  116 1    
   107   54   55 am   BACKBONE|DICT|INTERRES
   108   54  117 1    
   109   55   56 2    
   110   55   57 1    
   111   57   58 1    
   112   57   59 1    
   113   57  118 1    
   114   58  119 1    
   115   58  120 1    
   116   58  121 1    
   117   59   60 am   BACKBONE|DICT|INTERRES
   118   59  122 1    
   119   60   61 2    
   120   60   62 1    
   121   62   63 1    
   122   62   64 1    
   123   62  123 1    
   124   63  124 1    
   125   63  125 1    
   126   63  126 1    
   127   64   65 am   BACKBONE|DICT|INTERRES
   128   64  127 1    
   129   65   66 2    
@<TRIPOS>SUBSTRUCTURE
     1 UNK         1 GROUP             0       ****    0 ROOT    
