@<TRIPOS>MOLECULE
3R135
127   129    1
SMALL
USER_CHARGES


@<TRIPOS>ATOM
      1 CA        -83.4061   28.0932  -70.9102 C.3       0 UNK        -0.1998 
      2 C         -83.4951   27.9851  -72.4250 C.2       0 UNK         0.4909 
      3 O         -84.4800   27.4621  -72.9466 O.2       0 UNK        -0.5240 
      4 N         -82.4706   28.4764  -73.1345 N.am      1 UNK        -0.4739 
      5 CA        -82.3605   28.4440  -74.5993 C.3       1 UNK         0.0864 
      6 C6        -81.3320   29.4844  -75.1207 C.3       11 UNK        -0.0881 
      7 S7        -79.6225   29.2306  -74.5271 S.3       11 UNK        -0.2682 
      8 C8        -79.5552   30.2964  -73.0454 C.3       11 UNK         0.0289 
      9 C9        -78.6634   29.6590  -71.9912 C.ar      11 UNK        -0.0687 
     10 C10       -79.0559   28.4543  -71.4018 C.ar      11 UNK        -0.0823 
     11 C11       -78.1825   27.7595  -70.5645 C.ar      11 UNK        -0.0830 
     12 C12       -76.9533   28.3260  -70.2230 C.ar      11 UNK        -0.1021 
     13 C13       -76.5466   29.5281  -70.8093 C.ar      11 UNK        -0.0753 
     14 C14       -77.4093   30.1993  -71.6844 C.ar      11 UNK        -0.0933 
     15 C15       -75.1202   30.0112  -70.6031 C.3       11 UNK         0.0166 
     16 S16       -73.9844   28.9135  -71.5084 S.3       11 UNK        -0.2615 
     17 C17       -72.3687   29.7312  -71.2879 C.3       11 UNK        -0.0865 
     18 CA        -71.9228   30.5646  -72.5209 C.3       10 UNK         0.0862 
     19 C         -70.4743   31.0977  -72.3163 C.2       10 UNK         0.5551 
     20 N         -69.4858   30.6393  -73.0753 N.am      10 UNK        -0.7319 
     21 O         -70.2477   31.9396  -71.4508 O.2       10 UNK        -0.5018 
     22 N         -72.1519   29.8452  -73.7856 N.am      10 UNK        -0.4509 
     23 C         -72.1218   30.3865  -75.0092 C.2       10 UNK         0.4899 
     24 O         -71.8678   31.5730  -75.2221 O.2       10 UNK        -0.4839 
     25 CA        -72.4723   29.4642  -76.1933 C.3       9 UNK         0.0222 
     26 CB        -71.6625   29.7992  -77.4635 C.3       9 UNK        -0.1966 
     27 N         -72.4047   28.0286  -75.8918 N.am      9 UNK        -0.4218 
     28 C         -71.3241   27.2911  -75.5958 C.2       9 UNK         0.5020 
     29 O         -70.1922   27.7523  -75.4421 O.2       9 UNK        -0.5274 
     30 CA        -71.5478   25.7731  -75.4530 C.3       8 UNK         0.0270 
     31 CB        -71.9088   25.4100  -74.0030 C.3       8 UNK        -0.1976 
     32 N         -72.5784   25.2616  -76.3657 N.am      8 UNK        -0.4313 
     33 C         -72.4458   25.2066  -77.7003 C.2       8 UNK         0.5041 
     34 O         -71.4023   25.4800  -78.2954 O.2       8 UNK        -0.5577 
     35 CA        -73.6853   24.7995  -78.5169 C.3       7 UNK         0.0284 
     36 CB        -73.8126   23.2697  -78.5934 C.3       7 UNK        -0.1958 
     37 N         -74.9259   25.3793  -77.9953 N.am      7 UNK        -0.4454 
     38 C         -75.2221   26.6877  -78.0145 C.2       7 UNK         0.5089 
     39 O         -74.5187   27.5417  -78.5536 O.2       7 UNK        -0.5125 
     40 CA        -76.4975   27.1292  -77.2734 C.3       6 UNK         0.0408 
     41 CB        -77.7290   27.0201  -78.1847 C.3       6 UNK        -0.1791 
     42 N         -76.7316   26.3788  -76.0374 N.am      6 UNK        -0.4762 
     43 C         -75.9116   26.3788  -74.9770 C.2       6 UNK         0.5007 
     44 O         -74.8812   27.0485  -74.9183 O.2       6 UNK        -0.5032 
     45 CA        -76.2651   25.4318  -73.8129 C.3       5 UNK         0.0783 
     46 C46       -77.3225   26.0632  -72.8851 C.3       11 UNK        -0.0857 
     47 S47       -77.5032   25.1651  -71.2936 S.3       11 UNK        -0.2512 
     48 C48       -78.4697   26.3066  -70.2268 C.3       11 UNK         0.0225 
     49 N         -76.6741   24.1180  -74.3063 N.am      5 UNK        -0.4615 
     50 C         -75.8541   23.2501  -74.9101 C.2       4 UNK         0.5053 
     51 O         -74.6498   23.4469  -75.0751 O.2       4 UNK        -0.5105 
     52 CA        -76.5017   21.9673  -75.4570 C.3       4 UNK         0.0263 
     53 CB        -76.6421   20.9152  -74.3455 C.3       4 UNK        -0.1981 
     54 N         -77.8113   22.2177  -76.0683 N.am      4 UNK        -0.4224 
     55 C         -77.9920   22.9328  -77.1882 C.2       3 UNK         0.4895 
     56 O         -77.0720   23.4213  -77.8429 O.2       3 UNK        -0.5091 
     57 CA        -79.4432   23.1766  -77.6357 C.3       3 UNK         0.0250 
     58 CB        -79.9688   21.9773  -78.4407 C.3       3 UNK        -0.1996 
     59 N         -80.3684   23.4783  -76.5366 N.am      3 UNK        -0.4254 
     60 C         -80.2542   24.5249  -75.7068 C.2       2 UNK         0.5004 
     61 O         -79.3018   25.3051  -75.7155 O.2       2 UNK        -0.5226 
     62 CA        -81.3629   24.6970  -74.6566 C.3       2 UNK         0.0269 
     63 CB        -80.9921   23.9475  -73.3661 C.3       2 UNK        -0.1926 
     64 N         -81.6122   26.1036  -74.3294 N.am      2 UNK        -0.4687 
     65 C         -82.1213   27.0223  -75.1658 C.2       1 UNK         0.5165 
     66 O         -82.4426   26.7781  -76.3303 O.2       1 UNK        -0.5079 
     67 H67       -84.2597   28.6493  -70.5236 H         1 UNK         0.0900 
     68 H68       -82.4976   28.6017  -70.5881 H         1 UNK         0.0900 
     69 H69       -83.4159   27.0998  -70.4624 H         1 UNK         0.0900 
     70 H70       -81.6979   28.9134  -72.6566 H         1 UNK         0.2959 
     71 H71       -83.3343   28.7468  -74.9918 H         1 UNK         0.1079 
     72 H72       -81.6553   30.4912  -74.8514 H         1 UNK         0.0837 
     73 H73       -81.3126   29.4733  -76.2122 H         1 UNK         0.0837 
     74 H74       -79.1848   31.2821  -73.3311 H         1 UNK         0.0685 
     75 H75       -80.5505   30.4497  -72.6282 H         1 UNK         0.0685 
     76 H76       -79.9885   27.9950  -71.6941 H         1 UNK         0.1434 
     77 H77       -76.2583   27.7685  -69.6095 H         1 UNK         0.1329 
     78 H78       -77.0801   31.1058  -72.1736 H         1 UNK         0.1335 
     79 H79       -74.8732   30.0069  -69.5404 H         1 UNK         0.0680 
     80 H80       -75.0001   31.0364  -70.9571 H         1 UNK         0.0680 
     81 H81       -71.6378   28.9470  -71.0803 H         1 UNK         0.1032 
     82 H82       -72.3973   30.3564  -70.3933 H         1 UNK         0.1032 
     83 H83       -72.5633   31.4480  -72.5561 H         1 UNK         0.0461 
     84 H84       -68.5507   30.9893  -72.9391 H         1 UNK         0.3453 
     85 H85       -69.6713   29.9480  -73.7866 H         1 UNK         0.3453 
     86 H86       -72.4028   28.8715  -73.6993 H         1 UNK         0.2984 
     87 H87       -73.5219   29.6600  -76.4174 H         1 UNK         0.0554 
     88 H88       -71.9452   29.1507  -78.2931 H         1 UNK         0.0847 
     89 H89       -70.5899   29.6899  -77.3013 H         1 UNK         0.0847 
     90 H90       -71.8395   30.8267  -77.7835 H         1 UNK         0.0847 
     91 H91       -73.3059   27.5566  -75.8618 H         1 UNK         0.3141 
     92 H92       -70.6070   25.2772  -75.7012 H         1 UNK         0.0743 
     93 H93       -72.8347   25.8864  -73.6807 H         1 UNK         0.0784 
     94 H94       -72.0283   24.3331  -73.8821 H         1 UNK         0.0784 
     95 H95       -71.1239   25.7288  -73.3158 H         1 UNK         0.0784 
     96 H96       -73.4490   24.9467  -75.9501 H         1 UNK         0.3213 
     97 H97       -73.5468   25.1762  -79.5327 H         1 UNK         0.0855 
     98 H98       -73.9752   22.8258  -77.6113 H         1 UNK         0.0814 
     99 H99       -72.9072   22.8236  -79.0071 H         1 UNK         0.0814 
    100 H100      -74.6424   22.9730  -79.2352 H         1 UNK         0.0814 
    101 H101      -75.6116   24.7334  -77.6141 H         1 UNK         0.3105 
    102 H102      -76.3737   28.1786  -76.9980 H         1 UNK         0.0547 
    103 H103      -77.9099   25.9914  -78.4957 H         1 UNK         0.0837 
    104 H104      -78.6269   27.3803  -77.6815 H         1 UNK         0.0837 
    105 H105      -77.5996   27.6171  -79.0882 H         1 UNK         0.0837 
    106 H106      -77.6023   25.8506  -75.9794 H         1 UNK         0.3020 
    107 H107      -75.3486   25.2983  -73.2328 H         1 UNK         0.1245 
    108 H108      -77.0061   27.0862  -72.6854 H         1 UNK         0.0781 
    109 H109      -78.2952   26.1342  -73.3746 H         1 UNK         0.0781 
    110 H110      -79.5320   26.0872  -70.3449 H         1 UNK         0.0836 
    111 H111      -78.2309   26.1126  -69.1802 H         1 UNK         0.0836 
    112 H112      -77.6575   23.9032  -74.2447 H         1 UNK         0.3022 
    113 H113      -75.8403   21.5648  -76.2273 H         1 UNK         0.0747 
    114 H114      -77.0286   19.9739  -74.7368 H         1 UNK         0.0793 
    115 H115      -75.6747   20.7012  -73.8887 H         1 UNK         0.0793 
    116 H116      -77.3104   21.2495  -73.5509 H         1 UNK         0.0793 
    117 H117      -78.6224   21.8471  -75.5952 H         1 UNK         0.3047 
    118 H118      -79.4342   24.0462  -78.2960 H         1 UNK         0.0822 
    119 H119      -80.9529   22.1827  -78.8625 H         1 UNK         0.0807 
    120 H120      -80.0464   21.0786  -77.8274 H         1 UNK         0.0807 
    121 H121      -79.3042   21.7462  -79.2746 H         1 UNK         0.0807 
    122 H122      -81.1717   22.8723  -76.4479 H         1 UNK         0.2946 
    123 H123      -82.2897   24.2794  -75.0565 H         1 UNK         0.1144 
    124 H124      -81.7885   24.0165  -72.6246 H         1 UNK         0.0793 
    125 H125      -80.0812   24.3436  -72.9159 H         1 UNK         0.0793 
    126 H126      -80.8254   22.8871  -73.5599 H         1 UNK         0.0793 
    127 H127      -81.3625   26.4045  -73.4006 H         1 UNK         0.2896 
@<TRIPOS>BOND
     1    1    2 1    
     2    1   67 1    
     3    1   68 1    
     4    1   69 1    
     5    2    3 2    
     6    2    4 am   BACKBONE|DICT|INTERRES
     7    4    5 1    
     8    4   70 1    
     9    5    6 1    
    10    5   65 1    
    11    5   71 1    
    12    6    7 1    
    13    6   72 1    
    14    6   73 1    
    15    7    8 1    
    16    8    9 1    
    17    8   74 1    
    18    8   75 1    
    19    9   10 ar   
    20    9   14 ar   
    21   10   11 ar   
    22   10   76 1    
    23   11   12 ar   
    24   11   48 1    
    25   12   13 ar   
    26   12   77 1    
    27   13   14 ar   
    28   13   15 1    
    29   14   78 1    
    30   15   16 1    
    31   15   79 1    
    32   15   80 1    
    33   16   17 1    
    34   17   18 1    
    35   17   81 1    
    36   17   82 1    
    37   18   19 1    
    38   18   22 1    
    39   18   83 1    
    40   19   20 am   BACKBONE|DICT|INTERRES
    41   19   21 2    
    42   20   84 1    
    43   20   85 1    
    44   22   23 am   BACKBONE|DICT|INTERRES
    45   22   86 1    
    46   23   24 2    
    47   23   25 1    
    48   25   26 1    
    49   25   27 1    
    50   25   87 1    
    51   26   88 1    
    52   26   89 1    
    53   26   90 1    
    54   27   28 am   BACKBONE|DICT|INTERRES
    55   27   91 1    
    56   28   29 2    
    57   28   30 1    
    58   30   31 1    
    59   30   32 1    
    60   30   92 1    
    61   31   93 1    
    62   31   94 1    
    63   31   95 1    
    64   32   33 am   BACKBONE|DICT|INTERRES
    65   32   96 1    
    66   33   34 2    
    67   33   35 1    
    68   35   36 1    
    69   35   37 1    
    70   35   97 1    
    71   36   98 1    
    72   36   99 1    
    73   36  100 1    
    74   37   38 am   BACKBONE|DICT|INTERRES
    75   37  101 1    
    76   38   39 2    
    77   38   40 1    
    78   40   41 1    
    79   40   42 1    
    80   40  102 1    
    81   41  103 1    
    82   41  104 1    
    83   41  105 1    
    84   42   43 am   BACKBONE|DICT|INTERRES
    85   42  106 1    
    86   43   44 2    
    87   43   45 1    
    88   45   46 1    
    89   45   49 1    
    90   45  107 1    
    91   46   47 1    
    92   46  108 1    
    93   46  109 1    
    94   47   48 1    
    95   48  110 1    
    96   48  111 1    
    97   49   50 am   BACKBONE|DICT|INTERRES
    98   49  112 1    
    99   50   51 2    
   100   50   52 1    
   101   52   53 1    
   102   52   54 1    
   103   52  113 1    
   104   53  114 1    
   105   53  115 1    
   106   53  116 1    
   107   54   55 am   BACKBONE|DICT|INTERRES
   108   54  117 1    
   109   55   56 2    
   110   55   57 1    
   111   57   58 1    
   112   57   59 1    
   113   57  118 1    
   114   58  119 1    
   115   58  120 1    
   116   58  121 1    
   117   59   60 am   BACKBONE|DICT|INTERRES
   118   59  122 1    
   119   60   61 2    
   120   60   62 1    
   121   62   63 1    
   122   62   64 1    
   123   62  123 1    
   124   63  124 1    
   125   63  125 1    
   126   63  126 1    
   127   64   65 am   BACKBONE|DICT|INTERRES
   128   64  127 1    
   129   65   66 2    
@<TRIPOS>SUBSTRUCTURE
     1 UNK         1 GROUP             0       ****    0 ROOT    
