@<TRIPOS>MOLECULE
3R135
127   129    1
SMALL
USER_CHARGES


@<TRIPOS>ATOM
      1 CA        -81.5391   24.6518  -73.0962 C.3       0 UNK        -0.1998 
      2 C         -81.8107   25.9155  -73.8922 C.2       0 UNK         0.4909 
      3 O         -82.4128   25.8435  -74.9639 O.2       0 UNK        -0.5240 
      4 N         -81.3731   27.0707  -73.3750 N.am      1 UNK        -0.4739 
      5 CA        -81.5857   28.4068  -73.9459 C.3       1 UNK         0.0864 
      6 C6        -81.0880   29.5283  -72.9996 C.3       11 UNK        -0.0881 
      7 S7        -81.8436   29.4149  -71.3411 S.3       11 UNK        -0.2682 
      8 C8        -80.4441   29.8340  -70.2512 C.3       11 UNK         0.0289 
      9 C9        -79.2832   28.8495  -70.3465 C.ar      11 UNK        -0.0687 
     10 C10       -79.4563   27.5061  -69.9938 C.ar      11 UNK        -0.0823 
     11 C11       -78.3775   26.6152  -70.0315 C.ar      11 UNK        -0.0830 
     12 C12       -77.1205   27.0803  -70.4278 C.ar      11 UNK        -0.1021 
     13 C13       -76.9333   28.4188  -70.7839 C.ar      11 UNK        -0.0753 
     14 C14       -78.0187   29.2980  -70.7435 C.ar      11 UNK        -0.0933 
     15 C15       -75.5478   28.9168  -71.1696 C.3       11 UNK         0.0166 
     16 S16       -75.3964   29.1799  -72.9631 S.3       11 UNK        -0.2615 
     17 C17       -73.6002   28.9345  -73.1980 C.3       11 UNK        -0.0865 
     18 CA        -72.9905   29.8980  -74.2496 C.3       10 UNK         0.0862 
     19 C         -71.4347   29.8119  -74.2679 C.2       10 UNK         0.5551 
     20 N         -70.7835   29.5229  -75.3894 N.am      10 UNK        -0.7319 
     21 O         -70.8002   30.0317  -73.2390 O.2       10 UNK        -0.5018 
     22 N         -73.6060   29.7140  -75.5717 N.am      10 UNK        -0.4509 
     23 C         -73.7426   30.6772  -76.4919 C.2       10 UNK         0.4899 
     24 O         -73.4487   31.8567  -76.2905 O.2       10 UNK        -0.4839 
     25 CA        -74.3023   30.2568  -77.8697 C.3       9 UNK         0.0222 
     26 CB        -73.8342   31.1912  -79.0061 C.3       9 UNK        -0.1966 
     27 N         -74.0433   28.8527  -78.2202 N.am      9 UNK        -0.4218 
     28 C         -72.8486   28.2500  -78.3069 C.2       9 UNK         0.5020 
     29 O         -71.7665   28.8162  -78.1314 O.2       9 UNK        -0.5274 
     30 CA        -72.8753   26.7459  -78.6253 C.3       8 UNK         0.0270 
     31 CB        -72.5042   26.4997  -80.0967 C.3       8 UNK        -0.1976 
     32 N         -71.9772   25.9750  -77.7610 N.am      8 UNK        -0.4313 
     33 C         -72.0395   25.9368  -76.4231 C.2       8 UNK         0.5041 
     34 O         -72.8476   26.5790  -75.7497 O.2       8 UNK        -0.5577 
     35 CA        -71.0030   25.0497  -75.7152 C.3       7 UNK         0.0284 
     36 CB        -69.7801   25.8856  -75.3039 C.3       7 UNK        -0.1958 
     37 N         -71.5649   24.4071  -74.5250 N.am      7 UNK        -0.4454 
     38 C         -72.5238   23.4704  -74.5356 C.2       7 UNK         0.5089 
     39 O         -72.9937   22.9880  -75.5679 O.2       7 UNK        -0.5125 
     40 CA        -73.0352   22.9614  -73.1766 C.3       6 UNK         0.0408 
     41 CB        -72.2691   23.5190  -71.9585 C.3       6 UNK        -0.1791 
     42 N         -74.4442   23.3154  -73.0417 N.am      6 UNK        -0.4762 
     43 C         -75.4834   22.4745  -73.0308 C.2       6 UNK         0.5007 
     44 O         -75.3771   21.2522  -73.1425 O.2       6 UNK        -0.5032 
     45 CA        -76.8844   23.0962  -72.8354 C.3       5 UNK         0.0783 
     46 C46       -77.1032   23.4815  -71.3465 C.3       11 UNK        -0.0857 
     47 S47       -78.8050   24.0350  -70.9944 S.3       11 UNK        -0.2512 
     48 C48       -78.5588   25.1681  -69.5902 C.3       11 UNK         0.0225 
     49 N         -77.1907   24.1740  -73.7910 N.am      5 UNK        -0.4615 
     50 C         -76.6425   25.3926  -73.8771 C.2       4 UNK         0.5053 
     51 O         -75.7279   25.7677  -73.1435 O.2       4 UNK        -0.5105 
     52 CA        -77.1919   26.3718  -74.9371 C.3       4 UNK         0.0263 
     53 CB        -76.0818   26.8482  -75.8906 C.3       4 UNK        -0.1981 
     54 N         -78.3634   25.9351  -75.7129 N.am      4 UNK        -0.4224 
     55 C         -78.4701   24.9093  -76.5736 C.2       3 UNK         0.4895 
     56 O         -77.5892   24.0681  -76.7457 O.2       3 UNK        -0.5091 
     57 CA        -79.7828   24.7768  -77.3711 C.3       3 UNK         0.0250 
     58 CB        -80.6044   23.5756  -76.8746 C.3       3 UNK        -0.1996 
     59 N         -80.6101   25.9868  -77.3251 N.am      3 UNK        -0.4254 
     60 C         -80.3947   27.0765  -78.0793 C.2       2 UNK         0.5004 
     61 O         -79.5372   27.1373  -78.9608 O.2       2 UNK        -0.5226 
     62 CA        -81.2564   28.3213  -77.7883 C.3       2 UNK         0.0269 
     63 CB        -82.4660   28.3723  -78.7353 C.3       2 UNK        -0.1926 
     64 N         -81.7247   28.4013  -76.4001 N.am      2 UNK        -0.4687 
     65 C         -80.9229   28.5169  -75.3322 C.2       1 UNK         0.5165 
     66 O         -79.6993   28.6311  -75.4115 O.2       1 UNK        -0.5079 
     67 H67       -81.4759   24.8636  -72.0292 H         1 UNK         0.0900 
     68 H68       -80.6028   24.1975  -73.4178 H         1 UNK         0.0900 
     69 H69       -82.3399   23.9281  -73.2457 H         1 UNK         0.0900 
     70 H70       -80.8719   27.0619  -72.4977 H         1 UNK         0.2959 
     71 H71       -82.6629   28.5366  -74.0724 H         1 UNK         0.1079 
     72 H72       -80.0008   29.4954  -72.9092 H         1 UNK         0.0837 
     73 H73       -81.3268   30.5100  -73.4130 H         1 UNK         0.0837 
     74 H74       -80.7999   29.8573  -69.2203 H         1 UNK         0.0685 
     75 H75       -80.1142   30.8483  -70.4819 H         1 UNK         0.0685 
     76 H76       -80.4298   27.1612  -69.6724 H         1 UNK         0.1434 
     77 H77       -76.2778   26.4045  -70.4488 H         1 UNK         0.1329 
     78 H78       -77.8705   30.3358  -71.0095 H         1 UNK         0.1335 
     79 H79       -75.3278   29.8496  -70.6485 H         1 UNK         0.0680 
     80 H80       -74.7963   28.1961  -70.8432 H         1 UNK         0.0680 
     81 H81       -73.1009   29.0704  -72.2369 H         1 UNK         0.1032 
     82 H82       -73.4289   27.8944  -73.4824 H         1 UNK         0.1032 
     83 H83       -73.2164   30.9116  -73.9128 H         1 UNK         0.0461 
     84 H84       -71.2817   29.3331  -76.2526 H         1 UNK         0.3453 
     85 H85       -69.7775   29.4880  -75.3762 H         1 UNK         0.3453 
     86 H86       -73.8071   28.7554  -75.8242 H         1 UNK         0.2984 
     87 H87       -75.3862   30.3522  -77.7912 H         1 UNK         0.0554 
     88 H88       -74.2545   30.8917  -79.9660 H         1 UNK         0.0847 
     89 H89       -72.7479   31.1965  -79.1025 H         1 UNK         0.0847 
     90 H90       -74.1489   32.2197  -78.8251 H         1 UNK         0.0847 
     91 H91       -74.8677   28.2910  -78.3821 H         1 UNK         0.3141 
     92 H92       -73.8856   26.3670  -78.4566 H         1 UNK         0.0743 
     93 H93       -73.1736   27.0437  -80.7647 H         1 UNK         0.0784 
     94 H94       -71.4877   26.8296  -80.3161 H         1 UNK         0.0784 
     95 H95       -72.5793   25.4434  -80.3558 H         1 UNK         0.0784 
     96 H96       -71.2519   25.4489  -78.2261 H         1 UNK         0.3213 
     97 H97       -70.6791   24.2645  -76.4018 H         1 UNK         0.0855 
     98 H98       -70.0508   26.6749  -74.6011 H         1 UNK         0.0814 
     99 H99       -69.3262   26.3672  -76.1711 H         1 UNK         0.0814 
    100 H100      -69.0122   25.2676  -74.8382 H         1 UNK         0.0814 
    101 H101      -71.2645   24.7722  -73.6341 H         1 UNK         0.3105 
    102 H102      -72.9126   21.8766  -73.1803 H         1 UNK         0.0547 
    103 H103      -72.3679   24.6018  -71.8694 H         1 UNK         0.0837 
    104 H104      -72.6447   23.0821  -71.0330 H         1 UNK         0.0837 
    105 H105      -71.2067   23.2772  -72.0115 H         1 UNK         0.0837 
    106 H106      -74.6650   24.3108  -73.0161 H         1 UNK         0.3020 
    107 H107      -77.5953   22.3011  -73.0674 H         1 UNK         0.1245 
    108 H108      -76.3963   24.2533  -71.0443 H         1 UNK         0.0781 
    109 H109      -76.9026   22.6247  -70.7002 H         1 UNK         0.0781 
    110 H110      -77.7036   24.8453  -68.9944 H         1 UNK         0.0836 
    111 H111      -79.4246   25.0891  -68.9310 H         1 UNK         0.0836 
    112 H112      -77.8596   23.9331  -74.5083 H         1 UNK         0.3022 
    113 H113      -77.5290   27.2427  -74.3725 H         1 UNK         0.0747 
    114 H114      -76.4573   27.5856  -76.5996 H         1 UNK         0.0793 
    115 H115      -75.2778   27.3208  -75.3290 H         1 UNK         0.0793 
    116 H116      -75.6442   26.0215  -76.4512 H         1 UNK         0.0793 
    117 H117      -79.1423   26.5807  -75.6636 H         1 UNK         0.3047 
    118 H118      -79.5070   24.5835  -78.4102 H         1 UNK         0.0822 
    119 H119      -80.0329   22.6502  -76.9588 H         1 UNK         0.0807 
    120 H120      -81.5132   23.4474  -77.4628 H         1 UNK         0.0807 
    121 H121      -80.8952   23.6830  -75.8306 H         1 UNK         0.0807 
    122 H122      -81.3438   26.0140  -76.6214 H         1 UNK         0.2946 
    123 H123      -80.6308   29.1962  -77.9801 H         1 UNK         0.1144 
    124 H124      -82.1469   28.3394  -79.7781 H         1 UNK         0.0793 
    125 H125      -83.0365   29.2918  -78.6023 H         1 UNK         0.0793 
    126 H126      -83.1408   27.5305  -78.5742 H         1 UNK         0.0793 
    127 H127      -82.7128   28.2516  -76.2491 H         1 UNK         0.2896 
@<TRIPOS>BOND
     1    1    2 1    
     2    1   67 1    
     3    1   68 1    
     4    1   69 1    
     5    2    3 2    
     6    2    4 am   BACKBONE|DICT|INTERRES
     7    4    5 1    
     8    4   70 1    
     9    5    6 1    
    10    5   65 1    
    11    5   71 1    
    12    6    7 1    
    13    6   72 1    
    14    6   73 1    
    15    7    8 1    
    16    8    9 1    
    17    8   74 1    
    18    8   75 1    
    19    9   10 ar   
    20    9   14 ar   
    21   10   11 ar   
    22   10   76 1    
    23   11   12 ar   
    24   11   48 1    
    25   12   13 ar   
    26   12   77 1    
    27   13   14 ar   
    28   13   15 1    
    29   14   78 1    
    30   15   16 1    
    31   15   79 1    
    32   15   80 1    
    33   16   17 1    
    34   17   18 1    
    35   17   81 1    
    36   17   82 1    
    37   18   19 1    
    38   18   22 1    
    39   18   83 1    
    40   19   20 am   BACKBONE|DICT|INTERRES
    41   19   21 2    
    42   20   84 1    
    43   20   85 1    
    44   22   23 am   BACKBONE|DICT|INTERRES
    45   22   86 1    
    46   23   24 2    
    47   23   25 1    
    48   25   26 1    
    49   25   27 1    
    50   25   87 1    
    51   26   88 1    
    52   26   89 1    
    53   26   90 1    
    54   27   28 am   BACKBONE|DICT|INTERRES
    55   27   91 1    
    56   28   29 2    
    57   28   30 1    
    58   30   31 1    
    59   30   32 1    
    60   30   92 1    
    61   31   93 1    
    62   31   94 1    
    63   31   95 1    
    64   32   33 am   BACKBONE|DICT|INTERRES
    65   32   96 1    
    66   33   34 2    
    67   33   35 1    
    68   35   36 1    
    69   35   37 1    
    70   35   97 1    
    71   36   98 1    
    72   36   99 1    
    73   36  100 1    
    74   37   38 am   BACKBONE|DICT|INTERRES
    75   37  101 1    
    76   38   39 2    
    77   38   40 1    
    78   40   41 1    
    79   40   42 1    
    80   40  102 1    
    81   41  103 1    
    82   41  104 1    
    83   41  105 1    
    84   42   43 am   BACKBONE|DICT|INTERRES
    85   42  106 1    
    86   43   44 2    
    87   43   45 1    
    88   45   46 1    
    89   45   49 1    
    90   45  107 1    
    91   46   47 1    
    92   46  108 1    
    93   46  109 1    
    94   47   48 1    
    95   48  110 1    
    96   48  111 1    
    97   49   50 am   BACKBONE|DICT|INTERRES
    98   49  112 1    
    99   50   51 2    
   100   50   52 1    
   101   52   53 1    
   102   52   54 1    
   103   52  113 1    
   104   53  114 1    
   105   53  115 1    
   106   53  116 1    
   107   54   55 am   BACKBONE|DICT|INTERRES
   108   54  117 1    
   109   55   56 2    
   110   55   57 1    
   111   57   58 1    
   112   57   59 1    
   113   57  118 1    
   114   58  119 1    
   115   58  120 1    
   116   58  121 1    
   117   59   60 am   BACKBONE|DICT|INTERRES
   118   59  122 1    
   119   60   61 2    
   120   60   62 1    
   121   62   63 1    
   122   62   64 1    
   123   62  123 1    
   124   63  124 1    
   125   63  125 1    
   126   63  126 1    
   127   64   65 am   BACKBONE|DICT|INTERRES
   128   64  127 1    
   129   65   66 2    
@<TRIPOS>SUBSTRUCTURE
     1 UNK         1 GROUP             0       ****    0 ROOT    
