@<TRIPOS>MOLECULE
3R135
127   129    1
SMALL
USER_CHARGES


@<TRIPOS>ATOM
      1 CA        -84.4969   27.0832  -72.5885 C.3       0 UNK        -0.1998 
      2 C         -83.6236   28.1575  -73.2319 C.2       0 UNK         0.4909 
      3 O         -84.1566   29.1830  -73.6524 O.2       0 UNK        -0.5240 
      4 N         -82.2957   27.9987  -73.3322 N.am      1 UNK        -0.4739 
      5 CA        -81.4608   26.8416  -72.9739 C.3       1 UNK         0.0864 
      6 C6        -81.4917   26.4235  -71.4701 C.3       11 UNK        -0.0881 
      7 S7        -81.3837   27.8189  -70.2947 S.3       11 UNK        -0.2682 
      8 C8        -79.6213   27.8038  -69.8055 C.3       11 UNK         0.0289 
      9 C9        -78.6358   28.3406  -70.8466 C.ar      11 UNK        -0.0687 
     10 C10       -79.0369   29.1438  -71.9221 C.ar      11 UNK        -0.0823 
     11 C11       -78.1104   29.6059  -72.8603 C.ar      11 UNK        -0.0830 
     12 C12       -76.7566   29.3073  -72.6903 C.ar      11 UNK        -0.1021 
     13 C13       -76.3332   28.5363  -71.6047 C.ar      11 UNK        -0.0753 
     14 C14       -77.2762   28.0480  -70.6952 C.ar      11 UNK        -0.0933 
     15 C15       -74.8538   28.2478  -71.4128 C.3       11 UNK         0.0166 
     16 S16       -74.0194   29.6836  -70.6675 S.3       11 UNK        -0.2615 
     17 C17       -72.2704   29.1645  -70.7048 C.3       11 UNK        -0.0865 
     18 CA        -71.4941   29.7767  -71.9016 C.3       10 UNK         0.0862 
     19 C         -69.9629   29.5248  -71.7589 C.2       10 UNK         0.5551 
     20 N         -69.3121   28.7862  -72.6508 N.am      10 UNK        -0.7319 
     21 O         -69.3509   30.0177  -70.8146 O.2       10 UNK        -0.5018 
     22 N         -72.0665   29.3347  -73.1800 N.am      10 UNK        -0.4509 
     23 C         -71.8822   29.9159  -74.3709 C.2       10 UNK         0.4899 
     24 O         -71.2849   30.9812  -74.5307 O.2       10 UNK        -0.4839 
     25 CA        -72.4631   29.1578  -75.5840 C.3       9 UNK         0.0222 
     26 CB        -71.7389   29.4939  -76.9037 C.3       9 UNK        -0.1966 
     27 N         -72.5271   27.7014  -75.3864 N.am      9 UNK        -0.4218 
     28 C         -71.5062   26.8739  -75.1061 C.2       9 UNK         0.5020 
     29 O         -70.3370   27.2400  -74.9810 O.2       9 UNK        -0.5274 
     30 CA        -71.8507   25.3961  -74.8906 C.3       8 UNK         0.0270 
     31 CB        -72.4150   25.1715  -73.4760 C.3       8 UNK        -0.1976 
     32 N         -72.8149   24.9318  -75.8898 N.am      8 UNK        -0.4313 
     33 C         -72.5400   24.0414  -76.8512 C.2       8 UNK         0.5041 
     34 O         -71.4522   23.4769  -76.9785 O.2       8 UNK        -0.5577 
     35 CA        -73.6665   23.7106  -77.8425 C.3       7 UNK         0.0284 
     36 CB        -74.5569   22.5843  -77.2919 C.3       7 UNK        -0.1958 
     37 N         -74.4986   24.8617  -78.2001 N.am      7 UNK        -0.4454 
     38 C         -74.0936   25.8889  -78.9616 C.2       7 UNK         0.5089 
     39 O         -72.9438   26.0191  -79.3815 O.2       7 UNK        -0.5125 
     40 CA        -75.1504   26.9385  -79.3373 C.3       6 UNK         0.0408 
     41 CB        -76.0081   26.4349  -80.5096 C.3       6 UNK        -0.1791 
     42 N         -76.0206   27.2460  -78.2027 N.am      6 UNK        -0.4762 
     43 C         -76.0032   28.3941  -77.5113 C.2       6 UNK         0.5007 
     44 O         -75.2971   29.3595  -77.8026 O.2       6 UNK        -0.5032 
     45 CA        -76.9204   28.4876  -76.2723 C.3       5 UNK         0.0783 
     46 C46       -78.2127   29.2683  -76.6205 C.3       11 UNK        -0.0857 
     47 S47       -79.4341   29.3743  -75.2673 S.3       11 UNK        -0.2512 
     48 C48       -78.5895   30.4304  -74.0459 C.3       11 UNK         0.0225 
     49 N         -77.1977   27.1863  -75.6541 N.am      5 UNK        -0.4615 
     50 C         -76.2745   26.3773  -75.1200 C.2       4 UNK         0.5053 
     51 O         -75.0708   26.6339  -75.0972 O.2       4 UNK        -0.5105 
     52 CA        -76.7556   25.0277  -74.5670 C.3       4 UNK         0.0263 
     53 CB        -77.1511   25.1815  -73.0900 C.3       4 UNK        -0.1981 
     54 N         -77.8638   24.4027  -75.2993 N.am      4 UNK        -0.4224 
     55 C         -77.9858   24.2258  -76.6233 C.2       3 UNK         0.4895 
     56 O         -77.1767   24.6556  -77.4463 O.2       3 UNK        -0.5091 
     57 CA        -79.2213   23.4625  -77.1393 C.3       3 UNK         0.0250 
     58 CB        -78.8419   22.0236  -77.5399 C.3       3 UNK        -0.1996 
     59 N         -80.3951   23.4844  -76.2493 N.am      3 UNK        -0.4254 
     60 C         -80.5450   22.9293  -75.0381 C.2       2 UNK         0.5004 
     61 O         -79.6627   22.2977  -74.4557 O.2       2 UNK        -0.5226 
     62 CA        -81.8645   23.2286  -74.3101 C.3       2 UNK         0.0269 
     63 CB        -82.3026   22.0606  -73.4082 C.3       2 UNK        -0.1926 
     64 N         -81.7154   24.4335  -73.4913 N.am      2 UNK        -0.4687 
     65 C         -81.6864   25.6844  -73.9725 C.2       1 UNK         0.5165 
     66 O         -81.8296   25.9434  -75.1696 O.2       1 UNK        -0.5079 
     67 H67       -84.2452   26.0819  -72.9316 H         1 UNK         0.0900 
     68 H68       -85.5448   27.2527  -72.8354 H         1 UNK         0.0900 
     69 H69       -84.4049   27.1216  -71.5037 H         1 UNK         0.0900 
     70 H70       -81.7842   28.7305  -73.8053 H         1 UNK         0.2959 
     71 H71       -80.4399   27.1618  -73.1828 H         1 UNK         0.1079 
     72 H72       -80.6726   25.7340  -71.2578 H         1 UNK         0.0837 
     73 H73       -82.4044   25.8768  -71.2316 H         1 UNK         0.0837 
     74 H74       -79.5190   28.4103  -68.9048 H         1 UNK         0.0685 
     75 H75       -79.3445   26.7873  -69.5218 H         1 UNK         0.0685 
     76 H76       -80.0763   29.4085  -72.0493 H         1 UNK         0.1434 
     77 H77       -76.0234   29.6867  -73.3873 H         1 UNK         0.1329 
     78 H78       -76.9477   27.4502  -69.8558 H         1 UNK         0.1335 
     79 H79       -74.4053   28.0097  -72.3778 H         1 UNK         0.0680 
     80 H80       -74.7104   27.3722  -70.7777 H         1 UNK         0.0680 
     81 H81       -71.8245   29.4834  -69.7605 H         1 UNK         0.1032 
     82 H82       -72.2031   28.0749  -70.7123 H         1 UNK         0.1032 
     83 H83       -71.6177   30.8604  -71.8531 H         1 UNK         0.0461 
     84 H84       -68.3216   28.6427  -72.5363 H         1 UNK         0.3453 
     85 H85       -69.7887   28.3700  -73.4441 H         1 UNK         0.3453 
     86 H86       -72.5622   28.4584  -73.1592 H         1 UNK         0.2984 
     87 H87       -73.4959   29.4948  -75.6787 H         1 UNK         0.0554 
     88 H88       -72.1876   28.9644  -77.7446 H         1 UNK         0.0847 
     89 H89       -70.6818   29.2295  -76.8641 H         1 UNK         0.0847 
     90 H90       -71.8012   30.5599  -77.1252 H         1 UNK         0.0847 
     91 H91       -73.4686   27.3095  -75.3836 H         1 UNK         0.3141 
     92 H92       -70.9177   24.8336  -74.9672 H         1 UNK         0.0743 
     93 H93       -73.3505   25.7064  -73.3127 H         1 UNK         0.0784 
     94 H94       -72.6025   24.1135  -73.2927 H         1 UNK         0.0784 
     95 H95       -71.7086   25.5101  -72.7166 H         1 UNK         0.0784 
     96 H96       -73.7313   25.3652  -75.8706 H         1 UNK         0.3213 
     97 H97       -73.1963   23.3471  -78.7590 H         1 UNK         0.0855 
     98 H98       -73.9655   21.6968  -77.0628 H         1 UNK         0.0814 
     99 H99       -75.3163   22.2886  -78.0160 H         1 UNK         0.0814 
    100 H100      -75.0667   22.8807  -76.3753 H         1 UNK         0.0814 
    101 H101      -75.4787   24.8131  -77.9259 H         1 UNK         0.3105 
    102 H102      -74.6219   27.8344  -79.6698 H         1 UNK         0.0547 
    103 H103      -75.3862   26.1887  -81.3713 H         1 UNK         0.0837 
    104 H104      -76.5715   25.5387  -80.2458 H         1 UNK         0.0837 
    105 H105      -76.7207   27.1943  -80.8315 H         1 UNK         0.0837 
    106 H106      -76.6157   26.4917  -77.8732 H         1 UNK         0.3020 
    107 H107      -76.3618   29.0714  -75.5413 H         1 UNK         0.1245 
    108 H108      -78.7174   28.7995  -77.4677 H         1 UNK         0.0781 
    109 H109      -77.9703   30.2833  -76.9419 H         1 UNK         0.0781 
    110 H110      -79.2884   31.1917  -73.6961 H         1 UNK         0.0836 
    111 H111      -77.7631   30.9703  -74.5103 H         1 UNK         0.0836 
    112 H112      -78.1654   26.9012  -75.6331 H         1 UNK         0.3022 
    113 H113      -75.9114   24.3387  -74.6212 H         1 UNK         0.0747 
    114 H114      -76.3254   25.5904  -72.5058 H         1 UNK         0.0793 
    115 H115      -78.0005   25.8548  -72.9663 H         1 UNK         0.0793 
    116 H116      -77.4147   24.2217  -72.6452 H         1 UNK         0.0793 
    117 H117      -78.5488   23.9144  -74.7326 H         1 UNK         0.3047 
    118 H118      -79.5344   23.9816  -78.0467 H         1 UNK         0.0822 
    119 H119      -78.4802   21.4437  -76.6902 H         1 UNK         0.0807 
    120 H120      -78.0485   22.0254  -78.2887 H         1 UNK         0.0807 
    121 H121      -79.6916   21.4943  -77.9709 H         1 UNK         0.0807 
    122 H122      -81.1531   24.0725  -76.5731 H         1 UNK         0.2946 
    123 H123      -82.6478   23.3903  -75.0548 H         1 UNK         0.1144 
    124 H124      -82.4050   21.1409  -73.9858 H         1 UNK         0.0793 
    125 H125      -81.5828   21.8660  -72.6119 H         1 UNK         0.0793 
    126 H126      -83.2688   22.2597  -72.9441 H         1 UNK         0.0793 
    127 H127      -81.5684   24.2828  -72.5039 H         1 UNK         0.2896 
@<TRIPOS>BOND
     1    1    2 1    
     2    1   67 1    
     3    1   68 1    
     4    1   69 1    
     5    2    3 2    
     6    2    4 am   BACKBONE|DICT|INTERRES
     7    4    5 1    
     8    4   70 1    
     9    5    6 1    
    10    5   65 1    
    11    5   71 1    
    12    6    7 1    
    13    6   72 1    
    14    6   73 1    
    15    7    8 1    
    16    8    9 1    
    17    8   74 1    
    18    8   75 1    
    19    9   10 ar   
    20    9   14 ar   
    21   10   11 ar   
    22   10   76 1    
    23   11   12 ar   
    24   11   48 1    
    25   12   13 ar   
    26   12   77 1    
    27   13   14 ar   
    28   13   15 1    
    29   14   78 1    
    30   15   16 1    
    31   15   79 1    
    32   15   80 1    
    33   16   17 1    
    34   17   18 1    
    35   17   81 1    
    36   17   82 1    
    37   18   19 1    
    38   18   22 1    
    39   18   83 1    
    40   19   20 am   BACKBONE|DICT|INTERRES
    41   19   21 2    
    42   20   84 1    
    43   20   85 1    
    44   22   23 am   BACKBONE|DICT|INTERRES
    45   22   86 1    
    46   23   24 2    
    47   23   25 1    
    48   25   26 1    
    49   25   27 1    
    50   25   87 1    
    51   26   88 1    
    52   26   89 1    
    53   26   90 1    
    54   27   28 am   BACKBONE|DICT|INTERRES
    55   27   91 1    
    56   28   29 2    
    57   28   30 1    
    58   30   31 1    
    59   30   32 1    
    60   30   92 1    
    61   31   93 1    
    62   31   94 1    
    63   31   95 1    
    64   32   33 am   BACKBONE|DICT|INTERRES
    65   32   96 1    
    66   33   34 2    
    67   33   35 1    
    68   35   36 1    
    69   35   37 1    
    70   35   97 1    
    71   36   98 1    
    72   36   99 1    
    73   36  100 1    
    74   37   38 am   BACKBONE|DICT|INTERRES
    75   37  101 1    
    76   38   39 2    
    77   38   40 1    
    78   40   41 1    
    79   40   42 1    
    80   40  102 1    
    81   41  103 1    
    82   41  104 1    
    83   41  105 1    
    84   42   43 am   BACKBONE|DICT|INTERRES
    85   42  106 1    
    86   43   44 2    
    87   43   45 1    
    88   45   46 1    
    89   45   49 1    
    90   45  107 1    
    91   46   47 1    
    92   46  108 1    
    93   46  109 1    
    94   47   48 1    
    95   48  110 1    
    96   48  111 1    
    97   49   50 am   BACKBONE|DICT|INTERRES
    98   49  112 1    
    99   50   51 2    
   100   50   52 1    
   101   52   53 1    
   102   52   54 1    
   103   52  113 1    
   104   53  114 1    
   105   53  115 1    
   106   53  116 1    
   107   54   55 am   BACKBONE|DICT|INTERRES
   108   54  117 1    
   109   55   56 2    
   110   55   57 1    
   111   57   58 1    
   112   57   59 1    
   113   57  118 1    
   114   58  119 1    
   115   58  120 1    
   116   58  121 1    
   117   59   60 am   BACKBONE|DICT|INTERRES
   118   59  122 1    
   119   60   61 2    
   120   60   62 1    
   121   62   63 1    
   122   62   64 1    
   123   62  123 1    
   124   63  124 1    
   125   63  125 1    
   126   63  126 1    
   127   64   65 am   BACKBONE|DICT|INTERRES
   128   64  127 1    
   129   65   66 2    
@<TRIPOS>SUBSTRUCTURE
     1 UNK         1 GROUP             0       ****    0 ROOT    
