@<TRIPOS>MOLECULE
3R135
127   129    1
SMALL
USER_CHARGES


@<TRIPOS>ATOM
      1 CA        -82.0554   24.4707  -71.7883 C.3       0 UNK        -0.1998 
      2 C         -82.1458   25.5709  -72.8353 C.2       0 UNK         0.4909 
      3 O         -83.2511   25.9790  -73.1938 O.2       0 UNK        -0.5240 
      4 N         -80.9965   26.0495  -73.3213 N.am      1 UNK        -0.4739 
      5 CA        -80.8797   27.0951  -74.3383 C.3       1 UNK         0.0864 
      6 C6        -80.2314   28.3808  -73.7674 C.3       11 UNK        -0.0881 
      7 S7        -81.2987   29.2879  -72.6006 S.3       11 UNK        -0.2682 
      8 C8        -80.6220   28.7894  -70.9783 C.3       11 UNK         0.0289 
      9 C9        -79.1419   29.1113  -70.7663 C.ar      11 UNK        -0.0687 
     10 C10       -78.3450   28.2022  -70.0634 C.ar      11 UNK        -0.0823 
     11 C11       -76.9866   28.4562  -69.8507 C.ar      11 UNK        -0.0830 
     12 C12       -76.4272   29.6432  -70.3262 C.ar      11 UNK        -0.1021 
     13 C13       -77.2055   30.5592  -71.0379 C.ar      11 UNK        -0.0753 
     14 C14       -78.5639   30.2947  -71.2452 C.ar      11 UNK        -0.0933 
     15 C15       -76.5735   31.8300  -71.5867 C.3       11 UNK         0.0166 
     16 S16       -75.8525   31.5644  -73.2382 S.3       11 UNK        -0.2615 
     17 C17       -74.3672   30.5760  -72.8418 C.3       11 UNK        -0.0865 
     18 CA        -73.3031   30.5838  -73.9731 C.3       10 UNK         0.0862 
     19 C         -72.4524   31.8911  -73.9889 C.2       10 UNK         0.5551 
     20 N         -71.1470   31.8349  -73.7509 N.am      10 UNK        -0.7319 
     21 O         -72.9761   32.9726  -74.2418 O.2       10 UNK        -0.5018 
     22 N         -72.4977   29.3491  -73.9415 N.am      10 UNK        -0.4509 
     23 C         -71.9342   28.7827  -75.0162 C.2       10 UNK         0.4899 
     24 O         -72.1015   29.1935  -76.1655 O.2       10 UNK        -0.4839 
     25 CA        -71.0552   27.5398  -74.7962 C.3       9 UNK         0.0222 
     26 CB        -70.8023   27.1801  -73.3169 C.3       9 UNK        -0.1966 
     27 N         -71.7233   26.4296  -75.4627 N.am      9 UNK        -0.4218 
     28 C         -71.1892   25.6183  -76.3831 C.2       9 UNK         0.5020 
     29 O         -69.9918   25.5857  -76.6705 O.2       9 UNK        -0.5274 
     30 CA        -72.1834   24.7302  -77.1538 C.3       8 UNK         0.0270 
     31 CB        -72.7225   23.5923  -76.2702 C.3       8 UNK        -0.1976 
     32 N         -73.3003   25.5265  -77.6672 N.am      8 UNK        -0.4313 
     33 C         -73.2051   26.4651  -78.6195 C.2       8 UNK         0.5041 
     34 O         -72.2115   26.6176  -79.3309 O.2       8 UNK        -0.5577 
     35 CA        -74.3923   27.4351  -78.7762 C.3       7 UNK         0.0284 
     36 CB        -75.4723   26.8670  -79.7206 C.3       7 UNK        -0.1958 
     37 N         -74.9470   27.8822  -77.4870 N.am      7 UNK        -0.4454 
     38 C         -75.6548   27.1668  -76.6053 C.2       7 UNK         0.5089 
     39 O         -76.0290   26.0103  -76.8144 O.2       7 UNK        -0.5125 
     40 CA        -75.9462   27.8403  -75.2566 C.3       6 UNK         0.0408 
     41 CB        -77.0967   28.8480  -75.3754 C.3       6 UNK        -0.1791 
     42 N         -76.2395   26.8411  -74.2222 N.am      6 UNK        -0.4762 
     43 C         -75.2833   26.1118  -73.6295 C.2       6 UNK         0.5007 
     44 O         -74.0891   26.2281  -73.9052 O.2       6 UNK        -0.5032 
     45 CA        -75.7037   25.0472  -72.6014 C.3       5 UNK         0.0783 
     46 C46       -76.2744   25.6385  -71.2861 C.3       11 UNK        -0.0857 
     47 S47       -75.0366   26.5312  -70.2874 S.3       11 UNK        -0.2512 
     48 C48       -76.1137   27.4387  -69.1296 C.3       11 UNK         0.0225 
     49 N         -76.5148   24.0083  -73.2458 N.am      5 UNK        -0.4615 
     50 C         -77.8430   23.8371  -73.2197 C.2       4 UNK         0.5053 
     51 O         -78.6315   24.5207  -72.5653 O.2       4 UNK        -0.5105 
     52 CA        -78.3740   22.7425  -74.1519 C.3       4 UNK         0.0263 
     53 CB        -79.8716   22.4391  -73.9558 C.3       4 UNK        -0.1981 
     54 N         -78.1379   23.1905  -75.5185 N.am      4 UNK        -0.4224 
     55 C         -77.8534   22.4093  -76.5668 C.2       3 UNK         0.4895 
     56 O         -77.7727   21.1818  -76.4966 O.2       3 UNK        -0.5091 
     57 CA        -77.5787   23.1138  -77.9115 C.3       3 UNK         0.0250 
     58 CB        -78.0180   22.2788  -79.1334 C.3       3 UNK        -0.1996 
     59 N         -78.1025   24.4842  -77.9693 N.am      3 UNK        -0.4254 
     60 C         -79.3843   24.8760  -78.0038 C.2       2 UNK         0.5004 
     61 O         -80.3514   24.1145  -78.0695 O.2       2 UNK        -0.5226 
     62 CA        -79.6258   26.3941  -77.9204 C.3       2 UNK         0.0269 
     63 CB        -80.3402   26.9098  -79.1805 C.3       2 UNK        -0.1926 
     64 N         -80.3991   26.7702  -76.7312 N.am      2 UNK        -0.4687 
     65 C         -80.0021   26.5448  -75.4714 C.2       1 UNK         0.5165 
     66 O         -78.9381   25.9918  -75.1893 O.2       1 UNK        -0.5079 
     67 H67       -82.4309   23.5326  -72.1957 H         1 UNK         0.0900 
     68 H68       -82.6568   24.7306  -70.9177 H         1 UNK         0.0900 
     69 H69       -81.0313   24.3116  -71.4522 H         1 UNK         0.0900 
     70 H70       -80.1142   25.6168  -73.0502 H         1 UNK         0.2959 
     71 H71       -81.8592   27.3434  -74.7526 H         1 UNK         0.1079 
     72 H72       -79.2765   28.1474  -73.2932 H         1 UNK         0.0837 
     73 H73       -80.0032   29.0804  -74.5737 H         1 UNK         0.0837 
     74 H74       -81.1978   29.2855  -70.1963 H         1 UNK         0.0685 
     75 H75       -80.7972   27.7194  -70.8567 H         1 UNK         0.0685 
     76 H76       -78.7791   27.2825  -69.6949 H         1 UNK         0.1434 
     77 H77       -75.3768   29.8395  -70.1623 H         1 UNK         0.1329 
     78 H78       -79.1673   31.0067  -71.7908 H         1 UNK         0.1335 
     79 H79       -77.3258   32.6172  -71.6567 H         1 UNK         0.0680 
     80 H80       -75.8083   32.2023  -70.9038 H         1 UNK         0.0680 
     81 H81       -74.7149   29.5560  -72.6665 H         1 UNK         0.1032 
     82 H82       -73.9325   30.9125  -71.8989 H         1 UNK         0.1032 
     83 H83       -73.8470   30.5804  -74.9199 H         1 UNK         0.0461 
     84 H84       -70.6048   32.6843  -73.7728 H         1 UNK         0.3453 
     85 H85       -70.6988   30.9553  -73.5533 H         1 UNK         0.3453 
     86 H86       -72.3233   28.9461  -73.0326 H         1 UNK         0.2984 
     87 H87       -70.0939   27.7461  -75.2710 H         1 UNK         0.0554 
     88 H88       -70.1506   26.3098  -73.2381 H         1 UNK         0.0847 
     89 H89       -71.7242   26.9429  -72.7843 H         1 UNK         0.0847 
     90 H90       -70.3060   27.9953  -72.7889 H         1 UNK         0.0847 
     91 H91       -72.7109   26.3406  -75.2378 H         1 UNK         0.3141 
     92 H92       -71.6576   24.2883  -78.0030 H         1 UNK         0.0743 
     93 H93       -71.9057   22.9853  -75.8775 H         1 UNK         0.0784 
     94 H94       -73.3756   22.9281  -76.8367 H         1 UNK         0.0784 
     95 H95       -73.2884   23.9690  -75.4174 H         1 UNK         0.0784 
     96 H96       -74.1857   25.4659  -77.1735 H         1 UNK         0.3213 
     97 H97       -73.9958   28.3374  -79.2452 H         1 UNK         0.0855 
     98 H98       -75.0679   26.7294  -80.7240 H         1 UNK         0.0814 
     99 H99       -76.3243   27.5415  -79.8044 H         1 UNK         0.0814 
    100 H100      -75.8409   25.8951  -79.3932 H         1 UNK         0.0814 
    101 H101      -74.6460   28.8055  -77.2036 H         1 UNK         0.3105 
    102 H102      -75.0566   28.3923  -74.9513 H         1 UNK         0.0547 
    103 H103      -76.7917   29.7145  -75.9630 H         1 UNK         0.0837 
    104 H104      -77.9654   28.4213  -75.8708 H         1 UNK         0.0837 
    105 H105      -77.4026   29.2191  -74.3976 H         1 UNK         0.0837 
    106 H106      -77.2125   26.5907  -74.0874 H         1 UNK         0.3020 
    107 H107      -74.7839   24.5280  -72.3253 H         1 UNK         0.1245 
    108 H108      -76.6792   24.8413  -70.6610 H         1 UNK         0.0781 
    109 H109      -77.1072   26.3023  -71.5145 H         1 UNK         0.0781 
    110 H110      -75.4921   27.9504  -68.3935 H         1 UNK         0.0836 
    111 H111      -76.7246   26.7274  -68.5715 H         1 UNK         0.0836 
    112 H112      -75.9907   23.4005  -73.8598 H         1 UNK         0.3022 
    113 H113      -77.8038   21.8334  -73.9490 H         1 UNK         0.0747 
    114 H114      -80.1879   21.6014  -74.5772 H         1 UNK         0.0793 
    115 H115      -80.0867   22.1757  -72.9196 H         1 UNK         0.0793 
    116 H116      -80.4910   23.2972  -74.2172 H         1 UNK         0.0793 
    117 H117      -78.1927   24.1981  -75.6506 H         1 UNK         0.3047 
    118 H118      -76.4939   23.2185  -77.9659 H         1 UNK         0.0822 
    119 H119      -77.8130   22.8028  -80.0669 H         1 UNK         0.0807 
    120 H120      -79.0822   22.0442  -79.1048 H         1 UNK         0.0807 
    121 H121      -77.4806   21.3305  -79.1712 H         1 UNK         0.0807 
    122 H122      -77.3957   25.1951  -77.7908 H         1 UNK         0.2946 
    123 H123      -78.6587   26.8979  -77.8556 H         1 UNK         0.1144 
    124 H124      -79.7768   26.6545  -80.0791 H         1 UNK         0.0793 
    125 H125      -80.4453   27.9948  -79.1629 H         1 UNK         0.0793 
    126 H126      -81.3356   26.4764  -79.2862 H         1 UNK         0.0793 
    127 H127      -81.2872   27.2217  -76.8959 H         1 UNK         0.2896 
@<TRIPOS>BOND
     1    1    2 1    
     2    1   67 1    
     3    1   68 1    
     4    1   69 1    
     5    2    3 2    
     6    2    4 am   BACKBONE|DICT|INTERRES
     7    4    5 1    
     8    4   70 1    
     9    5    6 1    
    10    5   65 1    
    11    5   71 1    
    12    6    7 1    
    13    6   72 1    
    14    6   73 1    
    15    7    8 1    
    16    8    9 1    
    17    8   74 1    
    18    8   75 1    
    19    9   10 ar   
    20    9   14 ar   
    21   10   11 ar   
    22   10   76 1    
    23   11   12 ar   
    24   11   48 1    
    25   12   13 ar   
    26   12   77 1    
    27   13   14 ar   
    28   13   15 1    
    29   14   78 1    
    30   15   16 1    
    31   15   79 1    
    32   15   80 1    
    33   16   17 1    
    34   17   18 1    
    35   17   81 1    
    36   17   82 1    
    37   18   19 1    
    38   18   22 1    
    39   18   83 1    
    40   19   20 am   BACKBONE|DICT|INTERRES
    41   19   21 2    
    42   20   84 1    
    43   20   85 1    
    44   22   23 am   BACKBONE|DICT|INTERRES
    45   22   86 1    
    46   23   24 2    
    47   23   25 1    
    48   25   26 1    
    49   25   27 1    
    50   25   87 1    
    51   26   88 1    
    52   26   89 1    
    53   26   90 1    
    54   27   28 am   BACKBONE|DICT|INTERRES
    55   27   91 1    
    56   28   29 2    
    57   28   30 1    
    58   30   31 1    
    59   30   32 1    
    60   30   92 1    
    61   31   93 1    
    62   31   94 1    
    63   31   95 1    
    64   32   33 am   BACKBONE|DICT|INTERRES
    65   32   96 1    
    66   33   34 2    
    67   33   35 1    
    68   35   36 1    
    69   35   37 1    
    70   35   97 1    
    71   36   98 1    
    72   36   99 1    
    73   36  100 1    
    74   37   38 am   BACKBONE|DICT|INTERRES
    75   37  101 1    
    76   38   39 2    
    77   38   40 1    
    78   40   41 1    
    79   40   42 1    
    80   40  102 1    
    81   41  103 1    
    82   41  104 1    
    83   41  105 1    
    84   42   43 am   BACKBONE|DICT|INTERRES
    85   42  106 1    
    86   43   44 2    
    87   43   45 1    
    88   45   46 1    
    89   45   49 1    
    90   45  107 1    
    91   46   47 1    
    92   46  108 1    
    93   46  109 1    
    94   47   48 1    
    95   48  110 1    
    96   48  111 1    
    97   49   50 am   BACKBONE|DICT|INTERRES
    98   49  112 1    
    99   50   51 2    
   100   50   52 1    
   101   52   53 1    
   102   52   54 1    
   103   52  113 1    
   104   53  114 1    
   105   53  115 1    
   106   53  116 1    
   107   54   55 am   BACKBONE|DICT|INTERRES
   108   54  117 1    
   109   55   56 2    
   110   55   57 1    
   111   57   58 1    
   112   57   59 1    
   113   57  118 1    
   114   58  119 1    
   115   58  120 1    
   116   58  121 1    
   117   59   60 am   BACKBONE|DICT|INTERRES
   118   59  122 1    
   119   60   61 2    
   120   60   62 1    
   121   62   63 1    
   122   62   64 1    
   123   62  123 1    
   124   63  124 1    
   125   63  125 1    
   126   63  126 1    
   127   64   65 am   BACKBONE|DICT|INTERRES
   128   64  127 1    
   129   65   66 2    
@<TRIPOS>SUBSTRUCTURE
     1 UNK         1 GROUP             0       ****    0 ROOT    
