@<TRIPOS>MOLECULE
3R135
127   129    1
SMALL
USER_CHARGES


@<TRIPOS>ATOM
      1 CA        -80.3043   21.3667  -72.7540 C.3       0 UNK        -0.1998 
      2 C         -80.5961   22.8544  -72.6374 C.2       0 UNK         0.4909 
      3 O         -79.8683   23.6544  -73.2251 O.2       0 UNK        -0.5240 
      4 N         -81.6716   23.2081  -71.9151 N.am      1 UNK        -0.4739 
      5 CA        -82.1896   24.5381  -71.5265 C.3       1 UNK         0.0864 
      6 C6        -81.3600   25.2189  -70.4006 C.3       11 UNK        -0.0881 
      7 S7        -79.8102   26.0288  -70.9304 S.3       11 UNK        -0.2682 
      8 C8        -80.2661   27.7846  -70.7784 C.3       11 UNK         0.0289 
      9 C9        -79.2094   28.7010  -71.3789 C.ar      11 UNK        -0.0687 
     10 C10       -79.5283   29.5428  -72.4497 C.ar      11 UNK        -0.0823 
     11 C11       -78.5691   30.4104  -72.9845 C.ar      11 UNK        -0.0830 
     12 C12       -77.2780   30.4202  -72.4473 C.ar      11 UNK        -0.1021 
     13 C13       -76.9444   29.5724  -71.3873 C.ar      11 UNK        -0.0753 
     14 C14       -77.9163   28.7256  -70.8488 C.ar      11 UNK        -0.0933 
     15 C15       -75.5306   29.5570  -70.8341 C.3       11 UNK         0.0166 
     16 S16       -74.5921   28.1796  -71.5532 S.3       11 UNK        -0.2615 
     17 C17       -72.8980   28.5931  -71.0122 C.3       11 UNK        -0.0865 
     18 CA        -72.1430   29.5335  -71.9923 C.3       10 UNK         0.0862 
     19 C         -70.6644   29.7093  -71.5370 C.2       10 UNK         0.5551 
     20 N         -69.6806   29.1760  -72.2527 N.am      10 UNK        -0.7319 
     21 O         -70.4108   30.3382  -70.5127 O.2       10 UNK        -0.5018 
     22 N         -72.3170   29.1049  -73.3863 N.am      10 UNK        -0.4509 
     23 C         -71.9748   29.7877  -74.4851 C.2       10 UNK         0.4899 
     24 O         -71.4951   30.9218  -74.4679 O.2       10 UNK        -0.4839 
     25 CA        -72.2280   29.0760  -75.8301 C.3       9 UNK         0.0222 
     26 CB        -71.2219   29.4864  -76.9252 C.3       9 UNK        -0.1966 
     27 N         -72.3105   27.6133  -75.7066 N.am      9 UNK        -0.4218 
     28 C         -71.3453   26.7762  -75.2916 C.2       9 UNK         0.5020 
     29 O         -70.2055   27.1323  -74.9891 O.2       9 UNK        -0.5274 
     30 CA        -71.7272   25.2973  -75.1441 C.3       8 UNK         0.0270 
     31 CB        -72.2203   25.0152  -73.7134 C.3       8 UNK        -0.1976 
     32 N         -72.7646   24.9092  -76.1036 N.am      8 UNK        -0.4313 
     33 C         -72.5270   24.2417  -77.2395 C.2       8 UNK         0.5041 
     34 O         -71.4108   23.8558  -77.5906 O.2       8 UNK        -0.5577 
     35 CA        -73.7363   23.9362  -78.1361 C.3       7 UNK         0.0284 
     36 CB        -74.5183   22.7255  -77.6001 C.3       7 UNK        -0.1958 
     37 N         -74.6468   25.0699  -78.3112 N.am      7 UNK        -0.4454 
     38 C         -74.3694   26.1634  -79.0367 C.2       7 UNK         0.5089 
     39 O         -73.2728   26.3865  -79.5495 O.2       7 UNK        -0.5125 
     40 CA        -75.5145   27.1645  -79.2539 C.3       6 UNK         0.0408 
     41 CB        -76.5031   26.6306  -80.3036 C.3       6 UNK        -0.1791 
     42 N         -76.2312   27.4292  -78.0079 N.am      6 UNK        -0.4762 
     43 C         -76.0842   28.5319  -77.2587 C.2       6 UNK         0.5007 
     44 O         -75.3822   29.4886  -77.5858 O.2       6 UNK        -0.5032 
     45 CA        -76.8326   28.5715  -75.9059 C.3       5 UNK         0.0783 
     46 C46       -78.1476   29.3892  -76.0138 C.3       11 UNK        -0.0857 
     47 S47       -77.8884   31.1464  -75.6030 S.3       11 UNK        -0.2512 
     48 C48       -78.9399   31.3516  -74.1261 C.3       11 UNK         0.0225 
     49 N         -77.0802   27.2393  -75.3492 N.am      5 UNK        -0.4615 
     50 C         -76.1343   26.3562  -75.0023 C.2       4 UNK         0.5053 
     51 O         -74.9257   26.5648  -75.1131 O.2       4 UNK        -0.5105 
     52 CA        -76.6143   24.9743  -74.5286 C.3       4 UNK         0.0263 
     53 CB        -76.7522   24.9656  -73.0003 C.3       4 UNK        -0.1981 
     54 N         -77.8755   24.5409  -75.1446 N.am      4 UNK        -0.4224 
     55 C         -78.0837   24.4220  -76.4665 C.2       3 UNK         0.4895 
     56 O         -77.2244   24.6578  -77.3167 O.2       3 UNK        -0.5091 
     57 CA        -79.4919   24.0217  -76.9318 C.3       3 UNK         0.0250 
     58 CB        -79.6254   22.4914  -76.9675 C.3       3 UNK        -0.1996 
     59 N         -80.5691   24.5878  -76.1166 N.am      3 UNK        -0.4254 
     60 C         -80.8108   25.8961  -75.9357 C.2       2 UNK         0.5004 
     61 O         -80.1413   26.7978  -76.4380 O.2       2 UNK        -0.5226 
     62 CA        -81.9724   26.2453  -74.9996 C.3       2 UNK         0.0269 
     63 CB        -83.3258   26.1007  -75.7223 C.3       2 UNK        -0.1926 
     64 N         -81.8978   25.3867  -73.8209 N.am      2 UNK        -0.4687 
     65 C         -82.5583   25.5159  -72.6706 C.2       1 UNK         0.5165 
     66 O         -83.4283   26.3668  -72.4786 O.2       1 UNK        -0.5079 
     67 H67       -80.4277   21.0394  -73.7857 H         1 UNK         0.0900 
     68 H68       -79.2768   21.1644  -72.4530 H         1 UNK         0.0900 
     69 H69       -80.9643   20.7693  -72.1255 H         1 UNK         0.0900 
     70 H70       -82.2198   22.4509  -71.5305 H         1 UNK         0.2959 
     71 H71       -83.1543   24.2994  -71.0749 H         1 UNK         0.1079 
     72 H72       -81.1055   24.4816  -69.6378 H         1 UNK         0.0837 
     73 H73       -81.9821   25.9532  -69.8853 H         1 UNK         0.0837 
     74 H74       -81.2307   27.9469  -71.2619 H         1 UNK         0.0685 
     75 H75       -80.4000   28.0319  -69.7245 H         1 UNK         0.0685 
     76 H76       -80.5294   29.5316  -72.8587 H         1 UNK         0.1434 
     77 H77       -76.5302   31.0815  -72.8634 H         1 UNK         0.1329 
     78 H78       -77.6613   28.0698  -70.0274 H         1 UNK         0.1335 
     79 H79       -75.5506   29.4596  -69.7475 H         1 UNK         0.0680 
     80 H80       -75.0273   30.4994  -71.0560 H         1 UNK         0.0680 
     81 H81       -72.3572   27.6506  -70.9039 H         1 UNK         0.1032 
     82 H82       -72.9357   29.0311  -70.0127 H         1 UNK         0.1032 
     83 H83       -72.6016   30.5211  -71.9186 H         1 UNK         0.0461 
     84 H84       -69.8834   28.6584  -73.0962 H         1 UNK         0.3453 
     85 H85       -68.7269   29.2960  -71.9505 H         1 UNK         0.3453 
     86 H86       -72.7409   28.1972  -73.5069 H         1 UNK         0.2984 
     87 H87       -73.2148   29.4048  -76.1521 H         1 UNK         0.0554 
     88 H88       -71.2712   30.5583  -77.1199 H         1 UNK         0.0847 
     89 H89       -71.4335   28.9781  -77.8661 H         1 UNK         0.0847 
     90 H90       -70.1949   29.2556  -76.6410 H         1 UNK         0.0847 
     91 H91       -73.2426   27.2248  -75.8172 H         1 UNK         0.3141 
     92 H92       -70.8225   24.7072  -75.3056 H         1 UNK         0.0743 
     93 H93       -73.1076   25.5959  -73.4599 H         1 UNK         0.0784 
     94 H94       -72.4629   23.9609  -73.5804 H         1 UNK         0.0784 
     95 H95       -71.4509   25.2645  -72.9813 H         1 UNK         0.0784 
     96 H96       -73.7064   25.2300  -75.9042 H         1 UNK         0.3213 
     97 H97       -73.3498   23.6701  -79.1226 H         1 UNK         0.0855 
     98 H98       -74.9567   22.9242  -76.6222 H         1 UNK         0.0814 
     99 H99       -73.8679   21.8559  -77.4954 H         1 UNK         0.0814 
    100 H100      -75.3266   22.4454  -78.2759 H         1 UNK         0.0814 
    101 H101      -75.5913   24.9507  -77.9469 H         1 UNK         0.3105 
    102 H102      -75.0807   28.0866  -79.6465 H         1 UNK         0.0547 
    103 H103      -77.2844   27.3604  -80.5162 H         1 UNK         0.0837 
    104 H104      -76.9875   25.7092  -79.9774 H         1 UNK         0.0837 
    105 H105      -75.9951   26.4171  -81.2450 H         1 UNK         0.0837 
    106 H106      -76.8065   26.6751  -77.6493 H         1 UNK         0.3020 
    107 H107      -76.1644   29.0636  -75.1948 H         1 UNK         0.1245 
    108 H108      -78.9038   28.9896  -75.3371 H         1 UNK         0.0781 
    109 H109      -78.5966   29.3148  -77.0066 H         1 UNK         0.0781 
    110 H110      -79.9822   31.2162  -74.4195 H         1 UNK         0.0836 
    111 H111      -78.8541   32.3808  -73.7750 H         1 UNK         0.0836 
    112 H112      -78.0493   26.9596  -75.2800 H         1 UNK         0.3022 
    113 H113      -75.8494   24.2469  -74.8047 H         1 UNK         0.0747 
    114 H114      -77.0583   23.9871  -72.6301 H         1 UNK         0.0793 
    115 H115      -75.8048   25.2156  -72.5205 H         1 UNK         0.0793 
    116 H116      -77.4873   25.6970  -72.6643 H         1 UNK         0.0793 
    117 H117      -78.6320   24.3013  -74.5063 H         1 UNK         0.3047 
    118 H118      -79.6179   24.4013  -77.9479 H         1 UNK         0.0822 
    119 H119      -80.5860   22.1849  -77.3818 H         1 UNK         0.0807 
    120 H120      -79.5322   22.0550  -75.9723 H         1 UNK         0.0807 
    121 H121      -78.8487   22.0471  -77.5920 H         1 UNK         0.0807 
    122 H122      -81.1819   23.9255  -75.6645 H         1 UNK         0.2946 
    123 H123      -81.8454   27.2821  -74.6801 H         1 UNK         0.1144 
    124 H124      -83.5274   25.0660  -76.0016 H         1 UNK         0.0793 
    125 H125      -83.3443   26.6964  -76.6359 H         1 UNK         0.0793 
    126 H126      -84.1515   26.4451  -75.1000 H         1 UNK         0.0793 
    127 H127      -81.1221   24.7246  -73.7979 H         1 UNK         0.2896 
@<TRIPOS>BOND
     1    1    2 1    
     2    1   67 1    
     3    1   68 1    
     4    1   69 1    
     5    2    3 2    
     6    2    4 am   BACKBONE|DICT|INTERRES
     7    4    5 1    
     8    4   70 1    
     9    5    6 1    
    10    5   65 1    
    11    5   71 1    
    12    6    7 1    
    13    6   72 1    
    14    6   73 1    
    15    7    8 1    
    16    8    9 1    
    17    8   74 1    
    18    8   75 1    
    19    9   10 ar   
    20    9   14 ar   
    21   10   11 ar   
    22   10   76 1    
    23   11   12 ar   
    24   11   48 1    
    25   12   13 ar   
    26   12   77 1    
    27   13   14 ar   
    28   13   15 1    
    29   14   78 1    
    30   15   16 1    
    31   15   79 1    
    32   15   80 1    
    33   16   17 1    
    34   17   18 1    
    35   17   81 1    
    36   17   82 1    
    37   18   19 1    
    38   18   22 1    
    39   18   83 1    
    40   19   20 am   BACKBONE|DICT|INTERRES
    41   19   21 2    
    42   20   84 1    
    43   20   85 1    
    44   22   23 am   BACKBONE|DICT|INTERRES
    45   22   86 1    
    46   23   24 2    
    47   23   25 1    
    48   25   26 1    
    49   25   27 1    
    50   25   87 1    
    51   26   88 1    
    52   26   89 1    
    53   26   90 1    
    54   27   28 am   BACKBONE|DICT|INTERRES
    55   27   91 1    
    56   28   29 2    
    57   28   30 1    
    58   30   31 1    
    59   30   32 1    
    60   30   92 1    
    61   31   93 1    
    62   31   94 1    
    63   31   95 1    
    64   32   33 am   BACKBONE|DICT|INTERRES
    65   32   96 1    
    66   33   34 2    
    67   33   35 1    
    68   35   36 1    
    69   35   37 1    
    70   35   97 1    
    71   36   98 1    
    72   36   99 1    
    73   36  100 1    
    74   37   38 am   BACKBONE|DICT|INTERRES
    75   37  101 1    
    76   38   39 2    
    77   38   40 1    
    78   40   41 1    
    79   40   42 1    
    80   40  102 1    
    81   41  103 1    
    82   41  104 1    
    83   41  105 1    
    84   42   43 am   BACKBONE|DICT|INTERRES
    85   42  106 1    
    86   43   44 2    
    87   43   45 1    
    88   45   46 1    
    89   45   49 1    
    90   45  107 1    
    91   46   47 1    
    92   46  108 1    
    93   46  109 1    
    94   47   48 1    
    95   48  110 1    
    96   48  111 1    
    97   49   50 am   BACKBONE|DICT|INTERRES
    98   49  112 1    
    99   50   51 2    
   100   50   52 1    
   101   52   53 1    
   102   52   54 1    
   103   52  113 1    
   104   53  114 1    
   105   53  115 1    
   106   53  116 1    
   107   54   55 am   BACKBONE|DICT|INTERRES
   108   54  117 1    
   109   55   56 2    
   110   55   57 1    
   111   57   58 1    
   112   57   59 1    
   113   57  118 1    
   114   58  119 1    
   115   58  120 1    
   116   58  121 1    
   117   59   60 am   BACKBONE|DICT|INTERRES
   118   59  122 1    
   119   60   61 2    
   120   60   62 1    
   121   62   63 1    
   122   62   64 1    
   123   62  123 1    
   124   63  124 1    
   125   63  125 1    
   126   63  126 1    
   127   64   65 am   BACKBONE|DICT|INTERRES
   128   64  127 1    
   129   65   66 2    
@<TRIPOS>SUBSTRUCTURE
     1 UNK         1 GROUP             0       ****    0 ROOT    
