@<TRIPOS>MOLECULE
3R135
127   129    1
SMALL
USER_CHARGES


@<TRIPOS>ATOM
      1 CA        -84.1533   27.6845  -75.3470 C.3       0 UNK        -0.1998 
      2 C         -82.6953   27.9618  -75.0144 C.2       0 UNK         0.4909 
      3 O         -82.0478   28.7509  -75.7036 O.2       0 UNK        -0.5240 
      4 N         -82.1688   27.3162  -73.9660 N.am      1 UNK        -0.4739 
      5 CA        -80.7779   27.4273  -73.5178 C.3       1 UNK         0.0864 
      6 C6        -80.6125   26.9712  -72.0467 C.3       11 UNK        -0.0881 
      7 S7        -81.1345   28.2423  -70.8437 S.3       11 UNK        -0.2682 
      8 C8        -79.9477   29.6170  -71.1029 C.3       11 UNK         0.0289 
      9 C9        -78.5347   29.1626  -71.4576 C.ar      11 UNK        -0.0687 
     10 C10       -77.8243   28.3237  -70.5933 C.ar      11 UNK        -0.0823 
     11 C11       -76.5606   27.8437  -70.9487 C.ar      11 UNK        -0.0830 
     12 C12       -75.9763   28.2721  -72.1437 C.ar      11 UNK        -0.1021 
     13 C13       -76.6779   29.0974  -73.0233 C.ar      11 UNK        -0.0753 
     14 C14       -77.9552   29.5453  -72.6730 C.ar      11 UNK        -0.0933 
     15 C15       -76.0815   29.4350  -74.3818 C.3       11 UNK         0.0166 
     16 S16       -75.7371   31.2073  -74.5838 S.3       11 UNK        -0.2615 
     17 C17       -74.3745   31.4829  -73.4014 C.3       11 UNK        -0.0865 
     18 CA        -72.9758   31.3062  -74.0686 C.3       10 UNK         0.0862 
     19 C         -71.8751   32.2568  -73.4965 C.2       10 UNK         0.5551 
     20 N         -70.6002   31.8866  -73.5401 N.am      10 UNK        -0.7319 
     21 O         -72.1668   33.3607  -73.0424 O.2       10 UNK        -0.5018 
     22 N         -72.5684   29.8913  -74.1662 N.am      10 UNK        -0.4509 
     23 C         -72.2155   29.0996  -73.1385 C.2       10 UNK         0.4899 
     24 O         -72.2938   29.4445  -71.9592 O.2       10 UNK        -0.4839 
     25 CA        -71.6455   27.7015  -73.4545 C.3       9 UNK         0.0222 
     26 CB        -72.4338   26.5845  -72.7521 C.3       9 UNK        -0.1966 
     27 N         -71.5719   27.4143  -74.8875 N.am      9 UNK        -0.4218 
     28 C         -70.5768   27.8184  -75.6918 C.2       9 UNK         0.5020 
     29 O         -69.5830   28.4265  -75.2923 O.2       9 UNK        -0.5274 
     30 CA        -70.7145   27.5269  -77.1988 C.3       8 UNK         0.0270 
     31 CB        -69.9071   26.2746  -77.5778 C.3       8 UNK        -0.1976 
     32 N         -72.0981   27.3603  -77.6520 N.am      8 UNK        -0.4313 
     33 C         -73.0583   28.2933  -77.5806 C.2       8 UNK         0.5041 
     34 O         -72.8730   29.4338  -77.1553 O.2       8 UNK        -0.5577 
     35 CA        -74.4740   27.8589  -78.0026 C.3       7 UNK         0.0284 
     36 CB        -74.7094   28.1826  -79.4868 C.3       7 UNK        -0.1958 
     37 N         -74.7590   26.4367  -77.7575 N.am      7 UNK        -0.4454 
     38 C         -74.7310   25.8499  -76.5524 C.2       7 UNK         0.5089 
     39 O         -74.4254   26.4469  -75.5202 O.2       7 UNK        -0.5125 
     40 CA        -75.0712   24.3512  -76.5143 C.3       6 UNK         0.0408 
     41 CB        -73.8047   23.4843  -76.6665 C.3       6 UNK        -0.1791 
     42 N         -75.8686   24.0067  -75.3269 N.am      6 UNK        -0.4762 
     43 C         -75.4663   23.8487  -74.0535 C.2       6 UNK         0.5007 
     44 O         -74.2863   23.7913  -73.7075 O.2       6 UNK        -0.5032 
     45 CA        -76.5704   23.6997  -72.9774 C.3       5 UNK         0.0783 
     46 C46       -76.7388   24.9816  -72.1207 C.3       11 UNK        -0.0857 
     47 S47       -75.3480   25.3044  -70.9748 S.3       11 UNK        -0.2512 
     48 C48       -75.8623   26.8119  -70.0702 C.3       11 UNK         0.0225 
     49 N         -77.8637   23.3216  -73.5581 N.am      5 UNK        -0.4615 
     50 C         -78.2250   22.0735  -73.8774 C.2       4 UNK         0.5053 
     51 O         -77.4820   21.0987  -73.7644 O.2       4 UNK        -0.5105 
     52 CA        -79.6561   21.8735  -74.3954 C.3       4 UNK         0.0263 
     53 CB        -80.6598   21.9295  -73.2309 C.3       4 UNK        -0.1981 
     54 N         -80.0262   22.8776  -75.3977 N.am      4 UNK        -0.4224 
     55 C         -80.4211   22.5966  -76.6492 C.2       3 UNK         0.4895 
     56 O         -80.4799   21.4551  -77.1084 O.2       3 UNK        -0.5091 
     57 CA        -80.8495   23.7724  -77.5516 C.3       3 UNK         0.0250 
     58 CB        -82.3827   23.8870  -77.5856 C.3       3 UNK        -0.1996 
     59 N         -80.2896   25.0637  -77.1517 N.am      3 UNK        -0.4254 
     60 C         -78.9954   25.3971  -77.2363 C.2       2 UNK         0.5004 
     61 O         -78.1406   24.6796  -77.7509 O.2       2 UNK        -0.5226 
     62 CA        -78.5694   26.7372  -76.6090 C.3       2 UNK         0.0269 
     63 CB        -78.3626   27.7977  -77.7013 C.3       2 UNK        -0.1926 
     64 N         -79.4936   27.2620  -75.5972 N.am      2 UNK        -0.4687 
     65 C         -79.8419   26.6470  -74.4588 C.2       1 UNK         0.5165 
     66 O         -79.4865   25.5018  -74.1682 O.2       1 UNK        -0.5079 
     67 H67       -84.7289   28.6088  -75.3060 H         1 UNK         0.0900 
     68 H68       -84.2369   27.2750  -76.3533 H         1 UNK         0.0900 
     69 H69       -84.6023   26.9743  -74.6529 H         1 UNK         0.0900 
     70 H70       -82.7466   26.6782  -73.4372 H         1 UNK         0.2959 
     71 H71       -80.4809   28.4745  -73.5896 H         1 UNK         0.1079 
     72 H72       -79.5806   26.6991  -71.8219 H         1 UNK         0.0837 
     73 H73       -81.1850   26.0605  -71.8618 H         1 UNK         0.0837 
     74 H74       -79.9083   30.2208  -70.1954 H         1 UNK         0.0685 
     75 H75       -80.3448   30.2703  -71.8812 H         1 UNK         0.0685 
     76 H76       -78.2854   28.0022  -69.6692 H         1 UNK         0.1434 
     77 H77       -74.9994   27.9054  -72.4193 H         1 UNK         0.1329 
     78 H78       -78.5009   30.1781  -73.3595 H         1 UNK         0.1335 
     79 H79       -76.7814   29.1239  -75.1576 H         1 UNK         0.0680 
     80 H80       -75.1654   28.8707  -74.5603 H         1 UNK         0.0680 
     81 H81       -74.4887   30.8415  -72.5271 H         1 UNK         0.1032 
     82 H82       -74.5146   32.4985  -73.0289 H         1 UNK         0.1032 
     83 H83       -73.0648   31.6399  -75.1032 H         1 UNK         0.0461 
     84 H84       -69.8922   32.5081  -73.1824 H         1 UNK         0.3453 
     85 H85       -70.3410   30.9931  -73.9287 H         1 UNK         0.3453 
     86 H86       -72.4907   29.5380  -75.1139 H         1 UNK         0.2984 
     87 H87       -70.6341   27.6842  -73.0431 H         1 UNK         0.0554 
     88 H88       -71.9400   25.6196  -72.8670 H         1 UNK         0.0847 
     89 H89       -73.4408   26.4815  -73.1522 H         1 UNK         0.0847 
     90 H90       -72.5256   26.7727  -71.6817 H         1 UNK         0.0847 
     91 H91       -72.3863   26.9628  -75.2911 H         1 UNK         0.3141 
     92 H92       -70.2948   28.3819  -77.7331 H         1 UNK         0.0743 
     93 H93       -70.2976   25.3794  -77.0918 H         1 UNK         0.0784 
     94 H94       -69.9164   26.1055  -78.6548 H         1 UNK         0.0784 
     95 H95       -68.8630   26.3782  -77.2782 H         1 UNK         0.0784 
     96 H96       -72.3492   26.4543  -78.0195 H         1 UNK         0.3213 
     97 H97       -75.1799   28.4425  -77.4074 H         1 UNK         0.0855 
     98 H98       -74.0416   27.6145  -80.1357 H         1 UNK         0.0814 
     99 H99       -74.5333   29.2408  -79.6861 H         1 UNK         0.0814 
    100 H100      -75.7338   27.9666  -79.7886 H         1 UNK         0.0814 
    101 H101      -75.0198   25.8814  -78.5606 H         1 UNK         0.3105 
    102 H102      -75.7069   24.1281  -77.3701 H         1 UNK         0.0547 
    103 H103      -74.0303   22.4247  -76.5481 H         1 UNK         0.0837 
    104 H104      -73.0349   23.7487  -75.9407 H         1 UNK         0.0837 
    105 H105      -73.3644   23.6128  -77.6557 H         1 UNK         0.0837 
    106 H106      -76.8663   23.9977  -75.4843 H         1 UNK         0.3020 
    107 H107      -76.2513   22.8932  -72.3128 H         1 UNK         0.1245 
    108 H108      -77.6403   24.9057  -71.5102 H         1 UNK         0.0781 
    109 H109      -76.8935   25.8390  -72.7765 H         1 UNK         0.0781 
    110 H110      -74.9823   27.2687  -69.6158 H         1 UNK         0.0836 
    111 H111      -76.5108   26.5086  -69.2469 H         1 UNK         0.0836 
    112 H112      -78.5275   24.0830  -73.6868 H         1 UNK         0.3022 
    113 H113      -79.6998   20.8702  -74.8245 H         1 UNK         0.0747 
    114 H114      -81.6696   21.6988  -73.5706 H         1 UNK         0.0793 
    115 H115      -80.4045   21.2031  -72.4581 H         1 UNK         0.0793 
    116 H116      -80.6828   22.9139  -72.7611 H         1 UNK         0.0793 
    117 H117      -79.9833   23.8484  -75.1050 H         1 UNK         0.3047 
    118 H118      -80.4988   23.5512  -78.5621 H         1 UNK         0.0822 
    119 H119      -82.7084   24.6608  -78.2812 H         1 UNK         0.0807 
    120 H120      -82.7927   24.1232  -76.6026 H         1 UNK         0.0807 
    121 H121      -82.8373   22.9502  -77.9112 H         1 UNK         0.0807 
    122 H122      -80.9210   25.7252  -76.7244 H         1 UNK         0.2946 
    123 H123      -77.6130   26.5644  -76.1118 H         1 UNK         0.1144 
    124 H124      -77.9355   28.7141  -77.2945 H         1 UNK         0.0793 
    125 H125      -79.3006   28.0545  -78.1952 H         1 UNK         0.0793 
    126 H126      -77.6789   27.4368  -78.4701 H         1 UNK         0.0793 
    127 H127      -79.9292   28.1548  -75.7983 H         1 UNK         0.2896 
@<TRIPOS>BOND
     1    1    2 1    
     2    1   67 1    
     3    1   68 1    
     4    1   69 1    
     5    2    3 2    
     6    2    4 am   BACKBONE|DICT|INTERRES
     7    4    5 1    
     8    4   70 1    
     9    5    6 1    
    10    5   65 1    
    11    5   71 1    
    12    6    7 1    
    13    6   72 1    
    14    6   73 1    
    15    7    8 1    
    16    8    9 1    
    17    8   74 1    
    18    8   75 1    
    19    9   10 ar   
    20    9   14 ar   
    21   10   11 ar   
    22   10   76 1    
    23   11   12 ar   
    24   11   48 1    
    25   12   13 ar   
    26   12   77 1    
    27   13   14 ar   
    28   13   15 1    
    29   14   78 1    
    30   15   16 1    
    31   15   79 1    
    32   15   80 1    
    33   16   17 1    
    34   17   18 1    
    35   17   81 1    
    36   17   82 1    
    37   18   19 1    
    38   18   22 1    
    39   18   83 1    
    40   19   20 am   BACKBONE|DICT|INTERRES
    41   19   21 2    
    42   20   84 1    
    43   20   85 1    
    44   22   23 am   BACKBONE|DICT|INTERRES
    45   22   86 1    
    46   23   24 2    
    47   23   25 1    
    48   25   26 1    
    49   25   27 1    
    50   25   87 1    
    51   26   88 1    
    52   26   89 1    
    53   26   90 1    
    54   27   28 am   BACKBONE|DICT|INTERRES
    55   27   91 1    
    56   28   29 2    
    57   28   30 1    
    58   30   31 1    
    59   30   32 1    
    60   30   92 1    
    61   31   93 1    
    62   31   94 1    
    63   31   95 1    
    64   32   33 am   BACKBONE|DICT|INTERRES
    65   32   96 1    
    66   33   34 2    
    67   33   35 1    
    68   35   36 1    
    69   35   37 1    
    70   35   97 1    
    71   36   98 1    
    72   36   99 1    
    73   36  100 1    
    74   37   38 am   BACKBONE|DICT|INTERRES
    75   37  101 1    
    76   38   39 2    
    77   38   40 1    
    78   40   41 1    
    79   40   42 1    
    80   40  102 1    
    81   41  103 1    
    82   41  104 1    
    83   41  105 1    
    84   42   43 am   BACKBONE|DICT|INTERRES
    85   42  106 1    
    86   43   44 2    
    87   43   45 1    
    88   45   46 1    
    89   45   49 1    
    90   45  107 1    
    91   46   47 1    
    92   46  108 1    
    93   46  109 1    
    94   47   48 1    
    95   48  110 1    
    96   48  111 1    
    97   49   50 am   BACKBONE|DICT|INTERRES
    98   49  112 1    
    99   50   51 2    
   100   50   52 1    
   101   52   53 1    
   102   52   54 1    
   103   52  113 1    
   104   53  114 1    
   105   53  115 1    
   106   53  116 1    
   107   54   55 am   BACKBONE|DICT|INTERRES
   108   54  117 1    
   109   55   56 2    
   110   55   57 1    
   111   57   58 1    
   112   57   59 1    
   113   57  118 1    
   114   58  119 1    
   115   58  120 1    
   116   58  121 1    
   117   59   60 am   BACKBONE|DICT|INTERRES
   118   59  122 1    
   119   60   61 2    
   120   60   62 1    
   121   62   63 1    
   122   62   64 1    
   123   62  123 1    
   124   63  124 1    
   125   63  125 1    
   126   63  126 1    
   127   64   65 am   BACKBONE|DICT|INTERRES
   128   64  127 1    
   129   65   66 2    
@<TRIPOS>SUBSTRUCTURE
     1 UNK         1 GROUP             0       ****    0 ROOT    
