@<TRIPOS>MOLECULE
3R135
127   129    1
SMALL
USER_CHARGES


@<TRIPOS>ATOM
      1 CA        -82.8310   27.7982  -70.2079 C.3       0 UNK        -0.1998 
      2 C         -83.0628   27.7480  -71.7106 C.2       0 UNK         0.4909 
      3 O         -84.1899   27.5196  -72.1503 O.2       0 UNK        -0.5240 
      4 N         -82.0028   27.9613  -72.5007 N.am      1 UNK        -0.4739 
      5 CA        -82.0353   27.9378  -73.9684 C.3       1 UNK         0.0864 
      6 C6        -80.7838   28.6143  -74.5811 C.3       11 UNK        -0.0881 
      7 S7        -80.7156   30.4169  -74.3054 S.3       11 UNK        -0.2682 
      8 C8        -79.8144   30.5893  -72.7288 C.3       11 UNK         0.0289 
      9 C9        -78.4777   29.8580  -72.7013 C.ar      11 UNK        -0.0687 
     10 C10       -78.2619   28.8312  -71.7771 C.ar      11 UNK        -0.0823 
     11 C11       -77.0282   28.1778  -71.7083 C.ar      11 UNK        -0.0830 
     12 C12       -75.9988   28.5722  -72.5702 C.ar      11 UNK        -0.1021 
     13 C13       -76.2031   29.5888  -73.5076 C.ar      11 UNK        -0.0753 
     14 C14       -77.4460   30.2268  -73.5701 C.ar      11 UNK        -0.0933 
     15 C15       -75.0822   29.9947  -74.4549 C.3       11 UNK         0.0166 
     16 S16       -74.4246   31.6459  -74.0586 S.3       11 UNK        -0.2615 
     17 C17       -73.5762   31.3381  -72.4701 C.3       11 UNK        -0.0865 
     18 CA        -72.0858   31.7871  -72.4882 C.3       10 UNK         0.0862 
     19 C         -71.4299   31.7450  -71.0726 C.2       10 UNK         0.5551 
     20 N         -70.1363   31.4713  -70.9525 N.am      10 UNK        -0.7319 
     21 O         -72.0913   31.9983  -70.0685 O.2       10 UNK        -0.5018 
     22 N         -71.2971   31.1451  -73.5585 N.am      10 UNK        -0.4509 
     23 C         -71.0268   29.8382  -73.6655 C.2       10 UNK         0.4899 
     24 O         -71.3893   28.9838  -72.8537 O.2       10 UNK        -0.4839 
     25 CA        -70.1525   29.4325  -74.8656 C.3       9 UNK         0.0222 
     26 CB        -68.6617   29.5813  -74.5183 C.3       9 UNK        -0.1966 
     27 N         -70.4102   28.0518  -75.2788 N.am      9 UNK        -0.4218 
     28 C         -71.5255   27.6423  -75.8959 C.2       9 UNK         0.5020 
     29 O         -72.4084   28.4101  -76.2863 O.2       9 UNK        -0.5274 
     30 CA        -71.6575   26.1234  -76.1043 C.3       8 UNK         0.0270 
     31 CB        -71.7059   25.3775  -74.7568 C.3       8 UNK        -0.1976 
     32 N         -72.8731   25.8108  -76.8565 N.am      8 UNK        -0.4313 
     33 C         -72.9290   25.6264  -78.1822 C.2       8 UNK         0.5041 
     34 O         -71.9362   25.6494  -78.9125 O.2       8 UNK        -0.5577 
     35 CA        -74.3043   25.3409  -78.8196 C.3       7 UNK         0.0284 
     36 CB        -74.4118   23.8572  -79.2100 C.3       7 UNK        -0.1958 
     37 N         -75.4417   25.6846  -77.9650 N.am      7 UNK        -0.4454 
     38 C         -75.8531   26.9299  -77.6905 C.2       7 UNK         0.5089 
     39 O         -75.3775   27.9401  -78.2082 O.2       7 UNK        -0.5125 
     40 CA        -76.9818   27.0713  -76.6516 C.3       6 UNK         0.0408 
     41 CB        -78.3464   27.0878  -77.3556 C.3       6 UNK        -0.1791 
     42 N         -76.9820   26.0209  -75.6271 N.am      6 UNK        -0.4762 
     43 C         -75.9726   25.7553  -74.7836 C.2       6 UNK         0.5007 
     44 O         -74.9024   26.3591  -74.7943 O.2       6 UNK        -0.5032 
     45 CA        -76.1625   24.5726  -73.8180 C.3       5 UNK         0.0783 
     46 C46       -76.9693   24.9607  -72.5528 C.3       11 UNK        -0.0857 
     47 S47       -75.8777   25.6407  -71.2590 S.3       11 UNK        -0.2512 
     48 C48       -76.8182   27.0851  -70.6629 C.3       11 UNK         0.0225 
     49 N         -76.7585   23.4377  -74.5229 N.am      5 UNK        -0.4615 
     50 C         -76.0578   22.5359  -75.2238 C.2       4 UNK         0.5053 
     51 O         -74.8293   22.5309  -75.2978 O.2       4 UNK        -0.5105 
     52 CA        -76.8553   21.4567  -75.9776 C.3       4 UNK         0.0263 
     53 CB        -77.0135   20.2004  -75.1063 C.3       4 UNK        -0.1981 
     54 N         -78.1767   21.9088  -76.4195 N.am      4 UNK        -0.4224 
     55 C         -78.3830   22.8572  -77.3434 C.2       3 UNK         0.4895 
     56 O         -77.4803   23.4438  -77.9398 O.2       3 UNK        -0.5091 
     57 CA        -79.8455   23.2496  -77.6130 C.3       3 UNK         0.0250 
     58 CB        -80.4756   22.2976  -78.6423 C.3       3 UNK        -0.1996 
     59 N         -80.6973   23.3148  -76.4169 N.am      3 UNK        -0.4254 
     60 C         -80.4463   24.0557  -75.3284 C.2       2 UNK         0.5004 
     61 O         -79.3924   24.6663  -75.1365 O.2       2 UNK        -0.5226 
     62 CA        -81.5437   24.1234  -74.2555 C.3       2 UNK         0.0269 
     63 CB        -81.1864   23.2166  -73.0670 C.3       2 UNK        -0.1926 
     64 N         -81.6967   25.5009  -73.7825 N.am      2 UNK        -0.4687 
     65 C         -82.1754   26.5073  -74.5303 C.2       1 UNK         0.5165 
     66 O         -82.6922   26.3439  -75.6369 O.2       1 UNK        -0.5079 
     67 H67       -81.7927   28.0184  -69.9608 H         1 UNK         0.0900 
     68 H68       -83.4565   28.5687  -69.7580 H         1 UNK         0.0900 
     69 H69       -83.0915   26.8413  -69.7563 H         1 UNK         0.0900 
     70 H70       -81.1031   28.1506  -72.0875 H         1 UNK         0.2959 
     71 H71       -82.9186   28.4905  -74.2973 H         1 UNK         0.1079 
     72 H72       -80.7901   28.4887  -75.6654 H         1 UNK         0.0837 
     73 H73       -79.8657   28.1355  -74.2364 H         1 UNK         0.0837 
     74 H74       -80.4591   30.2575  -71.9144 H         1 UNK         0.0685 
     75 H75       -79.6342   31.6502  -72.5505 H         1 UNK         0.0685 
     76 H76       -79.0500   28.5517  -71.0922 H         1 UNK         0.1434 
     77 H77       -75.0364   28.0811  -72.5196 H         1 UNK         0.1329 
     78 H78       -77.6061   31.0204  -74.2872 H         1 UNK         0.1335 
     79 H79       -74.2703   29.2653  -74.4354 H         1 UNK         0.0680 
     80 H80       -75.4599   30.0005  -75.4782 H         1 UNK         0.0680 
     81 H81       -73.6495   30.2841  -72.1994 H         1 UNK         0.1032 
     82 H82       -74.1323   31.8795  -71.7028 H         1 UNK         0.1032 
     83 H83       -72.0842   32.8476  -72.7426 H         1 UNK         0.0461 
     84 H84       -69.7166   31.4575  -70.0363 H         1 UNK         0.3453 
     85 H85       -69.5801   31.2712  -71.7676 H         1 UNK         0.3453 
     86 H86       -70.9372   31.7727  -74.2631 H         1 UNK         0.2984 
     87 H87       -70.3822   30.0910  -75.7062 H         1 UNK         0.0554 
     88 H88       -68.4215   30.6109  -74.2500 H         1 UNK         0.0847 
     89 H89       -68.0277   29.3154  -75.3645 H         1 UNK         0.0847 
     90 H90       -68.3778   28.9507  -73.6745 H         1 UNK         0.0847 
     91 H91       -69.7494   27.3570  -74.9631 H         1 UNK         0.3141 
     92 H92       -70.7813   25.7780  -76.6569 H         1 UNK         0.0743 
     93 H93       -70.7492   25.4360  -74.2373 H         1 UNK         0.0784 
     94 H94       -72.4599   25.7943  -74.0882 H         1 UNK         0.0784 
     95 H95       -71.9312   24.3196  -74.8950 H         1 UNK         0.0784 
     96 H96       -73.7389   25.8945  -76.3317 H         1 UNK         0.3213 
     97 H97       -74.3693   25.9402  -79.7302 H         1 UNK         0.0855 
     98 H98       -74.3857   23.2082  -78.3334 H         1 UNK         0.0814 
     99 H99       -73.5887   23.5612  -79.8618 H         1 UNK         0.0814 
    100 H100      -75.3381   23.6551  -79.7483 H         1 UNK         0.0814 
    101 H101      -75.9608   24.9119  -77.5626 H         1 UNK         0.3105 
    102 H102      -76.8484   28.0238  -76.1358 H         1 UNK         0.0547 
    103 H103      -79.1654   27.1339  -76.6401 H         1 UNK         0.0837 
    104 H104      -78.4902   26.1978  -77.9679 H         1 UNK         0.0837 
    105 H105      -78.4346   27.9535  -78.0131 H         1 UNK         0.0837 
    106 H106      -77.8420   25.4821  -75.5305 H         1 UNK         0.3020 
    107 H107      -75.1625   24.2682  -73.4977 H         1 UNK         0.1245 
    108 H108      -77.4460   24.0779  -72.1236 H         1 UNK         0.0781 
    109 H109      -77.7829   25.6510  -72.7860 H         1 UNK         0.0781 
    110 H110      -76.2858   27.5188  -69.8156 H         1 UNK         0.0836 
    111 H111      -77.7752   26.7323  -70.2754 H         1 UNK         0.0836 
    112 H112      -77.7692   23.4289  -74.5798 H         1 UNK         0.3022 
    113 H113      -76.2802   21.1871  -76.8662 H         1 UNK         0.0747 
    114 H114      -77.5021   19.3950  -75.6551 H         1 UNK         0.0793 
    115 H115      -76.0412   19.8256  -74.7828 H         1 UNK         0.0793 
    116 H116      -77.6001   20.4013  -74.2088 H         1 UNK         0.0793 
    117 H117      -78.9800   21.4861  -75.9776 H         1 UNK         0.3047 
    118 H118      -79.8338   24.2503  -78.0478 H         1 UNK         0.0822 
    119 H119      -81.4684   22.6351  -78.9405 H         1 UNK         0.0807 
    120 H120      -80.5679   21.2829  -78.2531 H         1 UNK         0.0807 
    121 H121      -79.8693   22.2453  -79.5480 H         1 UNK         0.0807 
    122 H122      -81.5833   22.8333  -76.4775 H         1 UNK         0.2946 
    123 H123      -82.4934   23.7950  -74.6839 H         1 UNK         0.1144 
    124 H124      -81.0871   22.1776  -73.3838 H         1 UNK         0.0793 
    125 H125      -81.9593   23.2471  -72.2988 H         1 UNK         0.0793 
    126 H126      -80.2422   23.5083  -72.6046 H         1 UNK         0.0793 
    127 H127      -81.2749   25.7269  -72.8944 H         1 UNK         0.2896 
@<TRIPOS>BOND
     1    1    2 1    
     2    1   67 1    
     3    1   68 1    
     4    1   69 1    
     5    2    3 2    
     6    2    4 am   BACKBONE|DICT|INTERRES
     7    4    5 1    
     8    4   70 1    
     9    5    6 1    
    10    5   65 1    
    11    5   71 1    
    12    6    7 1    
    13    6   72 1    
    14    6   73 1    
    15    7    8 1    
    16    8    9 1    
    17    8   74 1    
    18    8   75 1    
    19    9   10 ar   
    20    9   14 ar   
    21   10   11 ar   
    22   10   76 1    
    23   11   12 ar   
    24   11   48 1    
    25   12   13 ar   
    26   12   77 1    
    27   13   14 ar   
    28   13   15 1    
    29   14   78 1    
    30   15   16 1    
    31   15   79 1    
    32   15   80 1    
    33   16   17 1    
    34   17   18 1    
    35   17   81 1    
    36   17   82 1    
    37   18   19 1    
    38   18   22 1    
    39   18   83 1    
    40   19   20 am   BACKBONE|DICT|INTERRES
    41   19   21 2    
    42   20   84 1    
    43   20   85 1    
    44   22   23 am   BACKBONE|DICT|INTERRES
    45   22   86 1    
    46   23   24 2    
    47   23   25 1    
    48   25   26 1    
    49   25   27 1    
    50   25   87 1    
    51   26   88 1    
    52   26   89 1    
    53   26   90 1    
    54   27   28 am   BACKBONE|DICT|INTERRES
    55   27   91 1    
    56   28   29 2    
    57   28   30 1    
    58   30   31 1    
    59   30   32 1    
    60   30   92 1    
    61   31   93 1    
    62   31   94 1    
    63   31   95 1    
    64   32   33 am   BACKBONE|DICT|INTERRES
    65   32   96 1    
    66   33   34 2    
    67   33   35 1    
    68   35   36 1    
    69   35   37 1    
    70   35   97 1    
    71   36   98 1    
    72   36   99 1    
    73   36  100 1    
    74   37   38 am   BACKBONE|DICT|INTERRES
    75   37  101 1    
    76   38   39 2    
    77   38   40 1    
    78   40   41 1    
    79   40   42 1    
    80   40  102 1    
    81   41  103 1    
    82   41  104 1    
    83   41  105 1    
    84   42   43 am   BACKBONE|DICT|INTERRES
    85   42  106 1    
    86   43   44 2    
    87   43   45 1    
    88   45   46 1    
    89   45   49 1    
    90   45  107 1    
    91   46   47 1    
    92   46  108 1    
    93   46  109 1    
    94   47   48 1    
    95   48  110 1    
    96   48  111 1    
    97   49   50 am   BACKBONE|DICT|INTERRES
    98   49  112 1    
    99   50   51 2    
   100   50   52 1    
   101   52   53 1    
   102   52   54 1    
   103   52  113 1    
   104   53  114 1    
   105   53  115 1    
   106   53  116 1    
   107   54   55 am   BACKBONE|DICT|INTERRES
   108   54  117 1    
   109   55   56 2    
   110   55   57 1    
   111   57   58 1    
   112   57   59 1    
   113   57  118 1    
   114   58  119 1    
   115   58  120 1    
   116   58  121 1    
   117   59   60 am   BACKBONE|DICT|INTERRES
   118   59  122 1    
   119   60   61 2    
   120   60   62 1    
   121   62   63 1    
   122   62   64 1    
   123   62  123 1    
   124   63  124 1    
   125   63  125 1    
   126   63  126 1    
   127   64   65 am   BACKBONE|DICT|INTERRES
   128   64  127 1    
   129   65   66 2    
@<TRIPOS>SUBSTRUCTURE
     1 UNK         1 GROUP             0       ****    0 ROOT    
