@<TRIPOS>MOLECULE
3R135
127   129    1
SMALL
USER_CHARGES


@<TRIPOS>ATOM
      1 CA        -82.7394   27.5458  -74.3567 C.3       0 UNK        -0.1998 
      2 C         -81.3875   27.9762  -74.9041 C.2       0 UNK         0.4909 
      3 O         -81.2404   28.1286  -76.1173 O.2       0 UNK        -0.5240 
      4 N         -80.4002   28.1637  -74.0179 N.am      1 UNK        -0.4739 
      5 CA        -79.0118   28.5324  -74.3247 C.3       1 UNK         0.0864 
      6 C6        -78.1610   28.6174  -73.0381 C.3       11 UNK        -0.0881 
      7 S7        -78.7003   29.9581  -71.9196 S.3       11 UNK        -0.2682 
      8 C8        -78.5159   29.1900  -70.2746 C.3       11 UNK         0.0289 
      9 C9        -77.1576   28.5234  -70.1087 C.ar      11 UNK        -0.0687 
     10 C10       -77.0660   27.1306  -70.0449 C.ar      11 UNK        -0.0823 
     11 C11       -75.8203   26.4985  -69.9871 C.ar      11 UNK        -0.0830 
     12 C12       -74.6591   27.2790  -69.9774 C.ar      11 UNK        -0.1021 
     13 C13       -74.7391   28.6762  -70.0096 C.ar      11 UNK        -0.0753 
     14 C14       -75.9922   29.2923  -70.0611 C.ar      11 UNK        -0.0933 
     15 C15       -73.4724   29.5185  -69.9800 C.3       11 UNK         0.0166 
     16 S16       -72.9413   30.0052  -71.6528 S.3       11 UNK        -0.2615 
     17 C17       -73.9073   31.5300  -71.9596 C.3       11 UNK        -0.0865 
     18 CA        -75.0811   31.3456  -72.9595 C.3       10 UNK         0.0862 
     19 C         -75.7949   32.7008  -73.2146 C.2       10 UNK         0.5551 
     20 N         -77.0049   32.8772  -72.7031 N.am      10 UNK        -0.7319 
     21 O         -75.2366   33.6040  -73.8343 O.2       10 UNK        -0.5018 
     22 N         -74.6300   30.6851  -74.1896 N.am      10 UNK        -0.4509 
     23 C         -75.3819   30.3480  -75.2451 C.2       10 UNK         0.4899 
     24 O         -76.5736   30.6269  -75.3755 O.2       10 UNK        -0.4839 
     25 CA        -74.6888   29.5142  -76.3371 C.3       9 UNK         0.0222 
     26 CB        -74.1962   30.4159  -77.4794 C.3       9 UNK        -0.1966 
     27 N         -73.5777   28.6939  -75.8439 N.am      9 UNK        -0.4218 
     28 C         -73.7008   27.6811  -74.9743 C.2       9 UNK         0.5020 
     29 O         -74.7726   27.3060  -74.4992 O.2       9 UNK        -0.5274 
     30 CA        -72.4035   26.9383  -74.6250 C.3       8 UNK         0.0270 
     31 CB        -72.4304   26.3248  -73.2155 C.3       8 UNK        -0.1976 
     32 N         -72.1959   25.8847  -75.6143 N.am      8 UNK        -0.4313 
     33 C         -71.6254   26.0858  -76.8101 C.2       8 UNK         0.5041 
     34 O         -71.0924   27.1472  -77.1390 O.2       8 UNK        -0.5577 
     35 CA        -71.6691   24.9277  -77.8223 C.3       7 UNK         0.0284 
     36 CB        -70.3656   24.1148  -77.7668 C.3       7 UNK        -0.1958 
     37 N         -72.8094   24.0268  -77.6378 N.am      7 UNK        -0.4454 
     38 C         -74.0970   24.3620  -77.8047 C.2       7 UNK         0.5089 
     39 O         -74.4726   25.4796  -78.1581 O.2       7 UNK        -0.5125 
     40 CA        -75.1448   23.2635  -77.5377 C.3       6 UNK         0.0408 
     41 CB        -74.5832   21.8275  -77.6498 C.3       6 UNK        -0.1791 
     42 N         -75.8400   23.4341  -76.2557 N.am      6 UNK        -0.4762 
     43 C         -75.2890   23.5105  -75.0329 C.2       6 UNK         0.5007 
     44 O         -74.0713   23.5538  -74.8408 O.2       6 UNK        -0.5032 
     45 CA        -76.2469   23.4690  -73.8221 C.3       5 UNK         0.0783 
     46 C46       -75.7703   24.3697  -72.6532 C.3       11 UNK        -0.0857 
     47 S47       -76.7528   24.1176  -71.1390 S.3       11 UNK        -0.2512 
     48 C48       -75.7294   24.9781  -69.8967 C.3       11 UNK         0.0225 
     49 N         -77.6324   23.7655  -74.2075 N.am      5 UNK        -0.4615 
     50 C         -78.6568   22.9094  -74.1097 C.2       4 UNK         0.5053 
     51 O         -78.5313   21.7147  -73.8396 O.2       4 UNK        -0.5105 
     52 CA        -80.0633   23.4814  -74.3343 C.3       4 UNK         0.0263 
     53 CB        -80.4862   24.3529  -73.1378 C.3       4 UNK        -0.1981 
     54 N         -80.1335   24.2786  -75.5588 N.am      4 UNK        -0.4224 
     55 C         -80.7404   23.8934  -76.6910 C.2       3 UNK         0.4895 
     56 O         -81.2846   22.7978  -76.8343 O.2       3 UNK        -0.5091 
     57 CA        -80.7773   24.8914  -77.8651 C.3       3 UNK         0.0250 
     58 CB        -82.1952   25.4576  -78.0487 C.3       3 UNK        -0.1996 
     59 N         -79.8312   25.9994  -77.7108 N.am      3 UNK        -0.4254 
     60 C         -78.5217   25.9022  -77.9831 C.2       2 UNK         0.5004 
     61 O         -78.0072   24.8942  -78.4647 O.2       2 UNK        -0.5226 
     62 CA        -77.6280   27.1102  -77.6407 C.3       2 UNK         0.0269 
     63 CB        -77.4072   27.9757  -78.8924 C.3       2 UNK        -0.1926 
     64 N         -78.1390   27.9526  -76.5527 N.am      2 UNK        -0.4687 
     65 C         -78.3823   27.5256  -75.3061 C.2       1 UNK         0.5165 
     66 O         -78.2004   26.3643  -74.9378 O.2       1 UNK        -0.5079 
     67 H67       -82.7532   27.5342  -73.2670 H         1 UNK         0.0900 
     68 H68       -82.9849   26.5446  -74.7097 H         1 UNK         0.0900 
     69 H69       -83.5169   28.2287  -74.6980 H         1 UNK         0.0900 
     70 H70       -80.5936   28.0342  -73.0356 H         1 UNK         0.2959 
     71 H71       -79.0248   29.5168  -74.7972 H         1 UNK         0.1079 
     72 H72       -78.1978   27.6605  -72.5150 H         1 UNK         0.0837 
     73 H73       -77.1088   28.7846  -73.2760 H         1 UNK         0.0837 
     74 H74       -78.6432   29.9543  -69.5067 H         1 UNK         0.0685 
     75 H75       -79.3224   28.4696  -70.1295 H         1 UNK         0.0685 
     76 H76       -77.9668   26.5326  -70.0648 H         1 UNK         0.1434 
     77 H77       -73.6901   26.8008  -69.9337 H         1 UNK         0.1329 
     78 H78       -76.0624   30.3702  -70.0962 H         1 UNK         0.1335 
     79 H79       -73.6144   30.4004  -69.3538 H         1 UNK         0.0680 
     80 H80       -72.6644   28.9510  -69.5157 H         1 UNK         0.0680 
     81 H81       -73.2103   32.2815  -72.3364 H         1 UNK         0.1032 
     82 H82       -74.2778   31.9251  -71.0123 H         1 UNK         0.1032 
     83 H83       -75.7989   30.6638  -72.5047 H         1 UNK         0.0461 
     84 H84       -77.4751   33.7568  -72.8471 H         1 UNK         0.3453 
     85 H85       -77.4824   32.1240  -72.2296 H         1 UNK         0.3453 
     86 H86       -73.6647   30.3933  -74.1866 H         1 UNK         0.2984 
     87 H87       -75.4335   28.8291  -76.7408 H         1 UNK         0.0554 
     88 H88       -73.7906   29.8277  -78.3029 H         1 UNK         0.0847 
     89 H89       -73.4222   31.1073  -77.1442 H         1 UNK         0.0847 
     90 H90       -75.0143   31.0140  -77.8835 H         1 UNK         0.0847 
     91 H91       -72.6626   28.8762  -76.2349 H         1 UNK         0.3141 
     92 H92       -71.5757   27.6505  -74.6543 H         1 UNK         0.0743 
     93 H93       -72.6602   27.0803  -72.4636 H         1 UNK         0.0784 
     94 H94       -73.1832   25.5454  -73.1334 H         1 UNK         0.0784 
     95 H95       -71.4668   25.8866  -72.9561 H         1 UNK         0.0784 
     96 H96       -72.6783   25.0072  -75.4443 H         1 UNK         0.3213 
     97 H97       -71.7549   25.3707  -78.8170 H         1 UNK         0.0855 
     98 H98       -69.4989   24.7575  -77.9283 H         1 UNK         0.0814 
     99 H99       -70.3432   23.3451  -78.5385 H         1 UNK         0.0814 
    100 H100      -70.2336   23.6277  -76.7998 H         1 UNK         0.0814 
    101 H101      -72.6027   23.0919  -77.3172 H         1 UNK         0.3105 
    102 H102      -75.8981   23.3699  -78.3182 H         1 UNK         0.0547 
    103 H103      -74.0709   21.6771  -78.6012 H         1 UNK         0.0837 
    104 H104      -73.8805   21.5888  -76.8509 H         1 UNK         0.0837 
    105 H105      -75.3872   21.0929  -77.6047 H         1 UNK         0.0837 
    106 H106      -76.8490   23.4547  -76.3097 H         1 UNK         0.3020 
    107 H107      -76.1826   22.4376  -73.4687 H         1 UNK         0.1245 
    108 H108      -75.8083   25.4247  -72.9304 H         1 UNK         0.0781 
    109 H109      -74.7354   24.1410  -72.3985 H         1 UNK         0.0781 
    110 H110      -74.6958   24.6407  -69.9873 H         1 UNK         0.0836 
    111 H111      -76.0631   24.6740  -68.9038 H         1 UNK         0.0836 
    112 H112      -77.8207   24.7409  -74.4411 H         1 UNK         0.3022 
    113 H113      -80.7567   22.6393  -74.3897 H         1 UNK         0.0747 
    114 H114      -81.5102   24.7087  -73.2509 H         1 UNK         0.0793 
    115 H115      -80.4409   23.7851  -72.2075 H         1 UNK         0.0793 
    116 H116      -79.8409   25.2239  -73.0170 H         1 UNK         0.0793 
    117 H117      -79.6478   25.1691  -75.5396 H         1 UNK         0.3047 
    118 H118      -80.5217   24.3354  -78.7700 H         1 UNK         0.0822 
    119 H119      -82.2425   26.1443  -78.8940 H         1 UNK         0.0807 
    120 H120      -82.5370   25.9922  -77.1628 H         1 UNK         0.0807 
    121 H121      -82.9122   24.6583  -78.2413 H         1 UNK         0.0807 
    122 H122      -80.1909   26.8564  -77.2990 H         1 UNK         0.2946 
    123 H123      -76.6642   26.7115  -77.3157 H         1 UNK         0.1144 
    124 H124      -76.7232   28.8013  -78.6993 H         1 UNK         0.0793 
    125 H125      -78.3437   28.3958  -79.2616 H         1 UNK         0.0793 
    126 H126      -76.9738   27.3836  -79.6998 H         1 UNK         0.0793 
    127 H127      -78.3419   28.9154  -76.7822 H         1 UNK         0.2896 
@<TRIPOS>BOND
     1    1    2 1    
     2    1   67 1    
     3    1   68 1    
     4    1   69 1    
     5    2    3 2    
     6    2    4 am   BACKBONE|DICT|INTERRES
     7    4    5 1    
     8    4   70 1    
     9    5    6 1    
    10    5   65 1    
    11    5   71 1    
    12    6    7 1    
    13    6   72 1    
    14    6   73 1    
    15    7    8 1    
    16    8    9 1    
    17    8   74 1    
    18    8   75 1    
    19    9   10 ar   
    20    9   14 ar   
    21   10   11 ar   
    22   10   76 1    
    23   11   12 ar   
    24   11   48 1    
    25   12   13 ar   
    26   12   77 1    
    27   13   14 ar   
    28   13   15 1    
    29   14   78 1    
    30   15   16 1    
    31   15   79 1    
    32   15   80 1    
    33   16   17 1    
    34   17   18 1    
    35   17   81 1    
    36   17   82 1    
    37   18   19 1    
    38   18   22 1    
    39   18   83 1    
    40   19   20 am   BACKBONE|DICT|INTERRES
    41   19   21 2    
    42   20   84 1    
    43   20   85 1    
    44   22   23 am   BACKBONE|DICT|INTERRES
    45   22   86 1    
    46   23   24 2    
    47   23   25 1    
    48   25   26 1    
    49   25   27 1    
    50   25   87 1    
    51   26   88 1    
    52   26   89 1    
    53   26   90 1    
    54   27   28 am   BACKBONE|DICT|INTERRES
    55   27   91 1    
    56   28   29 2    
    57   28   30 1    
    58   30   31 1    
    59   30   32 1    
    60   30   92 1    
    61   31   93 1    
    62   31   94 1    
    63   31   95 1    
    64   32   33 am   BACKBONE|DICT|INTERRES
    65   32   96 1    
    66   33   34 2    
    67   33   35 1    
    68   35   36 1    
    69   35   37 1    
    70   35   97 1    
    71   36   98 1    
    72   36   99 1    
    73   36  100 1    
    74   37   38 am   BACKBONE|DICT|INTERRES
    75   37  101 1    
    76   38   39 2    
    77   38   40 1    
    78   40   41 1    
    79   40   42 1    
    80   40  102 1    
    81   41  103 1    
    82   41  104 1    
    83   41  105 1    
    84   42   43 am   BACKBONE|DICT|INTERRES
    85   42  106 1    
    86   43   44 2    
    87   43   45 1    
    88   45   46 1    
    89   45   49 1    
    90   45  107 1    
    91   46   47 1    
    92   46  108 1    
    93   46  109 1    
    94   47   48 1    
    95   48  110 1    
    96   48  111 1    
    97   49   50 am   BACKBONE|DICT|INTERRES
    98   49  112 1    
    99   50   51 2    
   100   50   52 1    
   101   52   53 1    
   102   52   54 1    
   103   52  113 1    
   104   53  114 1    
   105   53  115 1    
   106   53  116 1    
   107   54   55 am   BACKBONE|DICT|INTERRES
   108   54  117 1    
   109   55   56 2    
   110   55   57 1    
   111   57   58 1    
   112   57   59 1    
   113   57  118 1    
   114   58  119 1    
   115   58  120 1    
   116   58  121 1    
   117   59   60 am   BACKBONE|DICT|INTERRES
   118   59  122 1    
   119   60   61 2    
   120   60   62 1    
   121   62   63 1    
   122   62   64 1    
   123   62  123 1    
   124   63  124 1    
   125   63  125 1    
   126   63  126 1    
   127   64   65 am   BACKBONE|DICT|INTERRES
   128   64  127 1    
   129   65   66 2    
@<TRIPOS>SUBSTRUCTURE
     1 UNK         1 GROUP             0       ****    0 ROOT    
