@<TRIPOS>MOLECULE
3R135
127   129    1
SMALL
USER_CHARGES


@<TRIPOS>ATOM
      1 CA        -78.7927   30.2722  -76.4246 C.3       0 UNK        -0.1998 
      2 C         -79.8364   29.5566  -75.5790 C.2       0 UNK         0.4909 
      3 O         -80.9958   29.9720  -75.5665 O.2       0 UNK        -0.5240 
      4 N         -79.4272   28.4919  -74.8731 N.am      1 UNK        -0.4739 
      5 CA        -80.2703   27.6092  -74.0530 C.3       1 UNK         0.0864 
      6 C6        -81.0088   28.3696  -72.9074 C.3       11 UNK        -0.0881 
      7 S7        -80.9397   27.4733  -71.3192 S.3       11 UNK        -0.2682 
      8 C8        -79.7023   28.4504  -70.4006 C.3       11 UNK         0.0289 
      9 C9        -78.3180   28.3297  -71.0211 C.ar      11 UNK        -0.0687 
     10 C10       -77.5083   27.2314  -70.7187 C.ar      11 UNK        -0.0823 
     11 C11       -76.2595   27.0793  -71.3312 C.ar      11 UNK        -0.0830 
     12 C12       -75.8155   28.0523  -72.2312 C.ar      11 UNK        -0.1021 
     13 C13       -76.6031   29.1686  -72.5207 C.ar      11 UNK        -0.0753 
     14 C14       -77.8518   29.3043  -71.9092 C.ar      11 UNK        -0.0933 
     15 C15       -76.1205   30.2122  -73.5167 C.3       11 UNK         0.0166 
     16 S16       -75.5550   31.7395  -72.7039 S.3       11 UNK        -0.2615 
     17 C17       -74.0202   31.2089  -71.8671 C.3       11 UNK        -0.0865 
     18 CA        -72.7447   31.5869  -72.6659 C.3       10 UNK         0.0862 
     19 C         -71.4610   31.4213  -71.7976 C.2       10 UNK         0.5551 
     20 N         -70.4683   30.6339  -72.1956 N.am      10 UNK        -0.7319 
     21 O         -71.3597   32.0332  -70.7371 O.2       10 UNK        -0.5018 
     22 N         -72.6944   30.8852  -73.9579 N.am      10 UNK        -0.4509 
     23 C         -72.0491   31.3194  -75.0467 C.2       10 UNK         0.4899 
     24 O         -71.4897   32.4149  -75.1192 O.2       10 UNK        -0.4839 
     25 CA        -72.0221   30.3551  -76.2522 C.3       9 UNK         0.0222 
     26 CB        -70.8810   30.6737  -77.2410 C.3       9 UNK        -0.1966 
     27 N         -71.9902   28.9325  -75.8783 N.am      9 UNK        -0.4218 
     28 C         -71.0769   28.3175  -75.1051 C.2       9 UNK         0.5020 
     29 O         -70.1436   28.9046  -74.5560 O.2       9 UNK        -0.5274 
     30 CA        -71.2349   26.8041  -74.8617 C.3       8 UNK         0.0270 
     31 CB        -71.7055   26.5447  -73.4205 C.3       8 UNK        -0.1976 
     32 N         -72.1564   26.1557  -75.7984 N.am      8 UNK        -0.4313 
     33 C         -71.8748   25.9126  -77.0886 C.2       8 UNK         0.5041 
     34 O         -70.7696   26.1204  -77.5912 O.2       8 UNK        -0.5577 
     35 CA        -73.0073   25.3755  -77.9866 C.3       7 UNK         0.0284 
     36 CB        -72.8236   23.8702  -78.2364 C.3       7 UNK        -0.1958 
     37 N         -74.3564   25.6186  -77.4657 N.am      7 UNK        -0.4454 
     38 C         -74.8952   26.8296  -77.2508 C.2       7 UNK         0.5089 
     39 O         -74.3199   27.8874  -77.5081 O.2       7 UNK        -0.5125 
     40 CA        -76.2774   26.8790  -76.5706 C.3       6 UNK         0.0408 
     41 CB        -77.3828   27.0007  -77.6316 C.3       6 UNK        -0.1791 
     42 N         -76.5719   25.7344  -75.7011 N.am      6 UNK        -0.4762 
     43 C         -75.8068   25.2886  -74.6911 C.2       6 UNK         0.5007 
     44 O         -74.7375   25.8054  -74.3679 O.2       6 UNK        -0.5032 
     45 CA        -76.2891   24.0150  -73.9677 C.3       5 UNK         0.0783 
     46 C46       -77.1553   24.3687  -72.7287 C.3       11 UNK        -0.0857 
     47 S47       -76.2475   24.2652  -71.1489 S.3       11 UNK        -0.2512 
     48 C48       -75.3799   25.8689  -71.0364 C.3       11 UNK         0.0225 
     49 N         -76.9961   23.0804  -74.8509 N.am      5 UNK        -0.4615 
     50 C         -76.5420   22.5219  -75.9778 C.2       4 UNK         0.5053 
     51 O         -75.4567   22.7989  -76.4878 O.2       4 UNK        -0.5105 
     52 CA        -77.4533   21.4826  -76.6586 C.3       4 UNK         0.0263 
     53 CB        -77.3441   20.1196  -75.9481 C.3       4 UNK        -0.1981 
     54 N         -78.8631   21.8775  -76.8285 N.am      4 UNK        -0.4224 
     55 C         -79.7870   22.1557  -75.8964 C.2       3 UNK         0.4895 
     56 O         -79.5742   22.1769  -74.6811 O.2       3 UNK        -0.5091 
     57 CA        -81.2007   22.4431  -76.4050 C.3       3 UNK         0.0250 
     58 CB        -82.0524   21.1591  -76.3863 C.3       3 UNK        -0.1996 
     59 N         -81.7951   23.4697  -75.5537 N.am      3 UNK        -0.4254 
     60 C         -82.8633   24.2106  -75.8670 C.2       2 UNK         0.5004 
     61 O         -83.5164   24.0715  -76.9023 O.2       2 UNK        -0.5226 
     62 CA        -83.2694   25.3063  -74.8657 C.3       2 UNK         0.0269 
     63 CB        -84.1618   24.7208  -73.7588 C.3       2 UNK        -0.1926 
     64 N         -82.1523   26.0374  -74.2522 N.am      2 UNK        -0.4687 
     65 C         -81.2236   26.7436  -74.9152 C.2       1 UNK         0.5165 
     66 O         -81.1088   26.7271  -76.1435 O.2       1 UNK        -0.5079 
     67 H67       -78.6698   31.2985  -76.0793 H         1 UNK         0.0900 
     68 H68       -77.8215   29.7809  -76.3836 H         1 UNK         0.0900 
     69 H69       -79.1114   30.2995  -77.4663 H         1 UNK         0.0900 
     70 H70       -78.4612   28.2072  -74.9359 H         1 UNK         0.2959 
     71 H71       -79.5650   26.9062  -73.6067 H         1 UNK         0.1079 
     72 H72       -80.5771   29.3589  -72.7575 H         1 UNK         0.0837 
     73 H73       -82.0521   28.5718  -73.1586 H         1 UNK         0.0837 
     74 H74       -80.0167   29.4945  -70.3578 H         1 UNK         0.0685 
     75 H75       -79.6725   28.1000  -69.3678 H         1 UNK         0.0685 
     76 H76       -77.8639   26.4782  -70.0289 H         1 UNK         0.1434 
     77 H77       -74.8554   27.9373  -72.7139 H         1 UNK         0.1329 
     78 H78       -78.4651   30.1641  -72.1401 H         1 UNK         0.1335 
     79 H79       -75.3280   29.8120  -74.1500 H         1 UNK         0.0680 
     80 H80       -76.9407   30.4693  -74.1862 H         1 UNK         0.0680 
     81 H81       -74.0157   31.6969  -70.8904 H         1 UNK         0.1032 
     82 H82       -74.0447   30.1392  -71.6587 H         1 UNK         0.1032 
     83 H83       -72.8068   32.6564  -72.8764 H         1 UNK         0.0461 
     84 H84       -69.6494   30.5521  -71.6148 H         1 UNK         0.3453 
     85 H85       -70.5065   30.1315  -73.0767 H         1 UNK         0.3453 
     86 H86       -73.1026   29.9645  -73.9818 H         1 UNK         0.2984 
     87 H87       -72.9656   30.5058  -76.7788 H         1 UNK         0.0554 
     88 H88       -70.9709   31.6876  -77.6328 H         1 UNK         0.0847 
     89 H89       -70.8959   29.9962  -78.0948 H         1 UNK         0.0847 
     90 H90       -69.9023   30.5934  -76.7665 H         1 UNK         0.0847 
     91 H91       -72.7248   28.3678  -76.2937 H         1 UNK         0.3141 
     92 H92       -70.2492   26.3499  -74.9831 H         1 UNK         0.0743 
     93 H93       -70.9837   26.9306  -72.6993 H         1 UNK         0.0784 
     94 H94       -72.6592   27.0296  -73.2137 H         1 UNK         0.0784 
     95 H95       -71.8215   25.4787  -73.2240 H         1 UNK         0.0784 
     96 H96       -73.0885   25.9518  -75.4461 H         1 UNK         0.3213 
     97 H97       -72.9297   25.8933  -78.9450 H         1 UNK         0.0855 
     98 H98       -72.8799   23.2990  -77.3088 H         1 UNK         0.0814 
     99 H99       -71.8514   23.6646  -78.6866 H         1 UNK         0.0814 
    100 H100      -73.5832   23.4825  -78.9154 H         1 UNK         0.0814 
    101 H101      -74.8827   24.7991  -77.1830 H         1 UNK         0.3105 
    102 H102      -76.2970   27.7719  -75.9431 H         1 UNK         0.0547 
    103 H103      -78.3703   27.0961  -77.1807 H         1 UNK         0.0837 
    104 H104      -77.2277   27.8806  -78.2577 H         1 UNK         0.0837 
    105 H105      -77.4029   26.1331  -78.2924 H         1 UNK         0.0837 
    106 H106      -77.4103   25.2128  -75.9120 H         1 UNK         0.3020 
    107 H107      -75.3898   23.4885  -73.6407 H         1 UNK         0.1245 
    108 H108      -77.9768   23.6571  -72.6278 H         1 UNK         0.0781 
    109 H109      -77.6519   25.3350  -72.8273 H         1 UNK         0.0781 
    110 H110      -74.5227   25.8411  -71.7101 H         1 UNK         0.0836 
    111 H111      -74.9692   25.9731  -70.0315 H         1 UNK         0.0836 
    112 H112      -77.9214   22.7806  -74.5464 H         1 UNK         0.3022 
    113 H113      -77.0633   21.3517  -77.6695 H         1 UNK         0.0747 
    114 H114      -77.8982   19.3488  -76.4838 H         1 UNK         0.0793 
    115 H115      -76.3053   19.7910  -75.8920 H         1 UNK         0.0793 
    116 H116      -77.7270   20.1579  -74.9277 H         1 UNK         0.0793 
    117 H117      -79.1632   21.9200  -77.7933 H         1 UNK         0.3047 
    118 H118      -81.1398   22.8270  -77.4259 H         1 UNK         0.0822 
    119 H119      -81.5945   20.3761  -76.9922 H         1 UNK         0.0807 
    120 H120      -83.0505   21.3329  -76.7884 H         1 UNK         0.0807 
    121 H121      -82.1635   20.7665  -75.3746 H         1 UNK         0.0807 
    122 H122      -81.3018   23.6422  -74.6869 H         1 UNK         0.2946 
    123 H123      -83.8596   26.0370  -75.4235 H         1 UNK         0.1144 
    124 H124      -84.5621   25.5041  -73.1148 H         1 UNK         0.0793 
    125 H125      -83.6165   24.0150  -73.1310 H         1 UNK         0.0793 
    126 H126      -85.0136   24.1881  -74.1843 H         1 UNK         0.0793 
    127 H127      -82.1577   26.0992  -73.2426 H         1 UNK         0.2896 
@<TRIPOS>BOND
     1    1    2 1    
     2    1   67 1    
     3    1   68 1    
     4    1   69 1    
     5    2    3 2    
     6    2    4 am   BACKBONE|DICT|INTERRES
     7    4    5 1    
     8    4   70 1    
     9    5    6 1    
    10    5   65 1    
    11    5   71 1    
    12    6    7 1    
    13    6   72 1    
    14    6   73 1    
    15    7    8 1    
    16    8    9 1    
    17    8   74 1    
    18    8   75 1    
    19    9   10 ar   
    20    9   14 ar   
    21   10   11 ar   
    22   10   76 1    
    23   11   12 ar   
    24   11   48 1    
    25   12   13 ar   
    26   12   77 1    
    27   13   14 ar   
    28   13   15 1    
    29   14   78 1    
    30   15   16 1    
    31   15   79 1    
    32   15   80 1    
    33   16   17 1    
    34   17   18 1    
    35   17   81 1    
    36   17   82 1    
    37   18   19 1    
    38   18   22 1    
    39   18   83 1    
    40   19   20 am   BACKBONE|DICT|INTERRES
    41   19   21 2    
    42   20   84 1    
    43   20   85 1    
    44   22   23 am   BACKBONE|DICT|INTERRES
    45   22   86 1    
    46   23   24 2    
    47   23   25 1    
    48   25   26 1    
    49   25   27 1    
    50   25   87 1    
    51   26   88 1    
    52   26   89 1    
    53   26   90 1    
    54   27   28 am   BACKBONE|DICT|INTERRES
    55   27   91 1    
    56   28   29 2    
    57   28   30 1    
    58   30   31 1    
    59   30   32 1    
    60   30   92 1    
    61   31   93 1    
    62   31   94 1    
    63   31   95 1    
    64   32   33 am   BACKBONE|DICT|INTERRES
    65   32   96 1    
    66   33   34 2    
    67   33   35 1    
    68   35   36 1    
    69   35   37 1    
    70   35   97 1    
    71   36   98 1    
    72   36   99 1    
    73   36  100 1    
    74   37   38 am   BACKBONE|DICT|INTERRES
    75   37  101 1    
    76   38   39 2    
    77   38   40 1    
    78   40   41 1    
    79   40   42 1    
    80   40  102 1    
    81   41  103 1    
    82   41  104 1    
    83   41  105 1    
    84   42   43 am   BACKBONE|DICT|INTERRES
    85   42  106 1    
    86   43   44 2    
    87   43   45 1    
    88   45   46 1    
    89   45   49 1    
    90   45  107 1    
    91   46   47 1    
    92   46  108 1    
    93   46  109 1    
    94   47   48 1    
    95   48  110 1    
    96   48  111 1    
    97   49   50 am   BACKBONE|DICT|INTERRES
    98   49  112 1    
    99   50   51 2    
   100   50   52 1    
   101   52   53 1    
   102   52   54 1    
   103   52  113 1    
   104   53  114 1    
   105   53  115 1    
   106   53  116 1    
   107   54   55 am   BACKBONE|DICT|INTERRES
   108   54  117 1    
   109   55   56 2    
   110   55   57 1    
   111   57   58 1    
   112   57   59 1    
   113   57  118 1    
   114   58  119 1    
   115   58  120 1    
   116   58  121 1    
   117   59   60 am   BACKBONE|DICT|INTERRES
   118   59  122 1    
   119   60   61 2    
   120   60   62 1    
   121   62   63 1    
   122   62   64 1    
   123   62  123 1    
   124   63  124 1    
   125   63  125 1    
   126   63  126 1    
   127   64   65 am   BACKBONE|DICT|INTERRES
   128   64  127 1    
   129   65   66 2    
@<TRIPOS>SUBSTRUCTURE
     1 UNK         1 GROUP             0       ****    0 ROOT    
