@<TRIPOS>MOLECULE
3R135
127   129    1
SMALL
USER_CHARGES


@<TRIPOS>ATOM
      1 CA        -84.0464   23.6151  -70.1356 C.3       0 UNK        -0.1998 
      2 C         -83.7467   25.0002  -70.6882 C.2       0 UNK         0.4909 
      3 O         -84.6641   25.7010  -71.1163 O.2       0 UNK        -0.5240 
      4 N         -82.4682   25.3999  -70.6833 N.am      1 UNK        -0.4739 
      5 CA        -81.9823   26.6898  -71.1939 C.3       1 UNK         0.0864 
      6 C6        -80.6183   27.0914  -70.5747 C.3       11 UNK        -0.0881 
      7 S7        -79.3724   25.7533  -70.4772 S.3       11 UNK        -0.2682 
      8 C8        -78.3820   25.9883  -71.9843 C.3       11 UNK         0.0289 
      9 C9        -77.7525   27.3689  -72.0704 C.ar      11 UNK        -0.0687 
     10 C10       -78.2748   28.3065  -72.9623 C.ar      11 UNK        -0.0823 
     11 C11       -77.6692   29.5549  -73.1115 C.ar      11 UNK        -0.0830 
     12 C12       -76.5816   29.8944  -72.3050 C.ar      11 UNK        -0.1021 
     13 C13       -76.0394   28.9617  -71.4173 C.ar      11 UNK        -0.0753 
     14 C14       -76.6281   27.6964  -71.3052 C.ar      11 UNK        -0.0933 
     15 C15       -74.8058   29.3153  -70.5994 C.3       11 UNK         0.0166 
     16 S16       -73.2741   29.1549  -71.5774 S.3       11 UNK        -0.2615 
     17 C17       -73.1718   30.7624  -72.4444 C.3       11 UNK        -0.0865 
     18 CA        -73.5381   30.6885  -73.9576 C.3       10 UNK         0.0862 
     19 C         -73.6528   32.0947  -74.6205 C.2       10 UNK         0.5551 
     20 N         -73.3276   32.2514  -75.8981 N.am      10 UNK        -0.7319 
     21 O         -74.0709   33.0553  -73.9786 O.2       10 UNK        -0.5018 
     22 N         -72.7335   29.7175  -74.7150 N.am      10 UNK        -0.4509 
     23 C         -71.4098   29.7372  -74.9124 C.2       10 UNK         0.4899 
     24 O         -70.6522   30.6029  -74.4711 O.2       10 UNK        -0.4839 
     25 CA        -70.8601   28.5731  -75.7586 C.3       9 UNK         0.0222 
     26 CB        -69.3201   28.5592  -75.8650 C.3       9 UNK        -0.1966 
     27 N         -71.3845   27.2820  -75.2973 N.am      9 UNK        -0.4218 
     28 C         -71.1769   26.6916  -74.1092 C.2       9 UNK         0.5020 
     29 O         -70.3967   27.1116  -73.2535 O.2       9 UNK        -0.5274 
     30 CA        -71.9839   25.4151  -73.8077 C.3       8 UNK         0.0270 
     31 CB        -73.0994   25.7130  -72.7914 C.3       8 UNK        -0.1976 
     32 N         -72.5849   24.8065  -74.9958 N.am      8 UNK        -0.4313 
     33 C         -71.9222   24.0937  -75.9154 C.2       8 UNK         0.5041 
     34 O         -70.7154   23.8546  -75.8620 O.2       8 UNK        -0.5577 
     35 CA        -72.7478   23.5708  -77.1010 C.3       7 UNK         0.0284 
     36 CB        -73.5362   22.3115  -76.7040 C.3       7 UNK        -0.1958 
     37 N         -73.6675   24.5833  -77.6256 N.am      7 UNK        -0.4454 
     38 C         -73.2968   25.6322  -78.3724 C.2       7 UNK         0.5089 
     39 O         -72.1340   25.8617  -78.7039 O.2       7 UNK        -0.5125 
     40 CA        -74.4110   26.5915  -78.8244 C.3       6 UNK         0.0408 
     41 CB        -75.0407   26.1038  -80.1384 C.3       6 UNK        -0.1791 
     42 N         -75.4611   26.7647  -77.8190 N.am      6 UNK        -0.4762 
     43 C         -75.3035   27.4490  -76.6750 C.2       6 UNK         0.5007 
     44 O         -74.2483   27.9900  -76.3433 O.2       6 UNK        -0.5032 
     45 CA        -76.5167   27.4910  -75.7209 C.3       5 UNK         0.0783 
     46 C46       -77.5466   28.5576  -76.1943 C.3       11 UNK        -0.0857 
     47 S47       -77.1137   30.2642  -75.7067 S.3       11 UNK        -0.2512 
     48 C48       -78.1299   30.4973  -74.2088 C.3       11 UNK         0.0225 
     49 N         -77.1579   26.1776  -75.5585 N.am      5 UNK        -0.4615 
     50 C         -76.5431   25.0077  -75.3174 C.2       4 UNK         0.5053 
     51 O         -75.3551   24.9140  -75.0184 O.2       4 UNK        -0.5105 
     52 CA        -77.3461   23.7054  -75.5232 C.3       4 UNK         0.0263 
     53 CB        -77.6278   23.0088  -74.1829 C.3       4 UNK        -0.1981 
     54 N         -78.6044   23.8768  -76.2532 N.am      4 UNK        -0.4224 
     55 C         -78.7403   24.4006  -77.4801 C.2       3 UNK         0.4895 
     56 O         -77.7892   24.6677  -78.2175 O.2       3 UNK        -0.5091 
     57 CA        -80.1669   24.7644  -77.9333 C.3       3 UNK         0.0250 
     58 CB        -80.6495   23.7798  -79.0107 C.3       3 UNK        -0.1996 
     59 N         -81.1806   24.8428  -76.8683 N.am      3 UNK        -0.4254 
     60 C         -81.1495   25.5994  -75.7578 C.2       2 UNK         0.5004 
     61 O         -80.1840   26.2964  -75.4386 O.2       2 UNK        -0.5226 
     62 CA        -82.4072   25.5595  -74.8644 C.3       2 UNK         0.0269 
     63 CB        -83.2783   24.3027  -75.0787 C.3       2 UNK        -0.1926 
     64 N         -82.0981   25.6575  -73.4352 N.am      2 UNK        -0.4687 
     65 C         -82.0075   26.7991  -72.7377 C.2       1 UNK         0.5165 
     66 O         -82.0121   27.9163  -73.2573 O.2       1 UNK        -0.5079 
     67 H67       -84.7380   23.6877  -69.2967 H         1 UNK         0.0900 
     68 H68       -84.5070   22.9960  -70.9049 H         1 UNK         0.0900 
     69 H69       -83.1447   23.1107  -69.7886 H         1 UNK         0.0900 
     70 H70       -81.7501   24.7917  -70.3131 H         1 UNK         0.2959 
     71 H71       -82.6990   27.4444  -70.8603 H         1 UNK         0.1079 
     72 H72       -80.2072   27.9753  -71.0625 H         1 UNK         0.0837 
     73 H73       -80.7943   27.4092  -69.5459 H         1 UNK         0.0837 
     74 H74       -77.5919   25.2366  -72.0048 H         1 UNK         0.0685 
     75 H75       -79.0097   25.7966  -72.8560 H         1 UNK         0.0685 
     76 H76       -79.1250   28.0428  -73.5774 H         1 UNK         0.1434 
     77 H77       -76.1233   30.8676  -72.4097 H         1 UNK         0.1329 
     78 H78       -76.2107   26.9638  -70.6281 H         1 UNK         0.1335 
     79 H79       -74.7320   28.6520  -69.7363 H         1 UNK         0.0680 
     80 H80       -74.8949   30.3242  -70.1945 H         1 UNK         0.0680 
     81 H81       -73.8133   31.4776  -71.9279 H         1 UNK         0.1032 
     82 H82       -72.1582   31.1472  -72.3237 H         1 UNK         0.1032 
     83 H83       -74.5467   30.2871  -74.0253 H         1 UNK         0.0461 
     84 H84       -73.4148   33.1604  -76.3240 H         1 UNK         0.3453 
     85 H85       -73.0039   31.4661  -76.4391 H         1 UNK         0.3453 
     86 H86       -73.2704   28.9923  -75.1866 H         1 UNK         0.2984 
     87 H87       -71.2548   28.7139  -76.7660 H         1 UNK         0.0554 
     88 H88       -68.9558   29.4744  -76.3330 H         1 UNK         0.0847 
     89 H89       -68.9722   27.7236  -76.4723 H         1 UNK         0.0847 
     90 H90       -68.8428   28.4860  -74.8875 H         1 UNK         0.0847 
     91 H91       -72.0739   26.8570  -75.9026 H         1 UNK         0.3141 
     92 H92       -71.2986   24.6918  -73.3608 H         1 UNK         0.0743 
     93 H93       -73.6586   24.8125  -72.5369 H         1 UNK         0.0784 
     94 H94       -72.6869   26.1117  -71.8638 H         1 UNK         0.0784 
     95 H95       -73.8082   26.4486  -73.1757 H         1 UNK         0.0784 
     96 H96       -73.5968   24.9076  -75.0902 H         1 UNK         0.3213 
     97 H97       -72.0515   23.2961  -77.8968 H         1 UNK         0.0855 
     98 H98       -74.2427   22.5093  -75.8973 H         1 UNK         0.0814 
     99 H99       -72.8625   21.5263  -76.3582 H         1 UNK         0.0814 
    100 H100      -74.0944   21.9086  -77.5493 H         1 UNK         0.0814 
    101 H101      -74.6402   24.5013  -77.3680 H         1 UNK         0.3105 
    102 H102      -73.9542   27.5661  -79.0100 H         1 UNK         0.0547 
    103 H103      -75.7746   26.8164  -80.5149 H         1 UNK         0.0837 
    104 H104      -74.2826   25.9811  -80.9131 H         1 UNK         0.0837 
    105 H105      -75.5408   25.1421  -80.0154 H         1 UNK         0.0837 
    106 H106      -76.3438   26.2957  -77.9927 H         1 UNK         0.3020 
    107 H107      -76.1344   27.7663  -74.7359 H         1 UNK         0.1245 
    108 H108      -78.5370   28.3410  -75.7954 H         1 UNK         0.0781 
    109 H109      -77.6787   28.5295  -77.2778 H         1 UNK         0.0781 
    110 H110      -79.1833   30.3360  -74.4444 H         1 UNK         0.0836 
    111 H111      -78.0432   31.5319  -73.8736 H         1 UNK         0.0836 
    112 H112      -78.1594   26.1565  -75.7217 H         1 UNK         0.3022 
    113 H113      -76.7153   23.0447  -76.1209 H         1 UNK         0.0747 
    114 H114      -78.3648   23.5501  -73.5908 H         1 UNK         0.0793 
    115 H115      -78.0053   21.9979  -74.3378 H         1 UNK         0.0793 
    116 H116      -76.7204   22.9236  -73.5828 H         1 UNK         0.0793 
    117 H117      -79.4506   23.7064  -75.7305 H         1 UNK         0.3047 
    118 H118      -80.1035   25.7573  -78.3831 H         1 UNK         0.0822 
    119 H119      -79.9365   23.7193  -79.8346 H         1 UNK         0.0807 
    120 H120      -81.6037   24.0911  -79.4364 H         1 UNK         0.0807 
    121 H121      -80.7710   22.7723  -78.6109 H         1 UNK         0.0807 
    122 H122      -82.0150   24.2959  -77.0255 H         1 UNK         0.2946 
    123 H123      -83.0069   26.4269  -75.1507 H         1 UNK         0.1144 
    124 H124      -84.1347   24.3015  -74.4034 H         1 UNK         0.0793 
    125 H125      -82.7187   23.3832  -74.9007 H         1 UNK         0.0793 
    126 H126      -83.6852   24.2595  -76.0898 H         1 UNK         0.0793 
    127 H127      -82.0565   24.7908  -72.9197 H         1 UNK         0.2896 
@<TRIPOS>BOND
     1    1    2 1    
     2    1   67 1    
     3    1   68 1    
     4    1   69 1    
     5    2    3 2    
     6    2    4 am   BACKBONE|DICT|INTERRES
     7    4    5 1    
     8    4   70 1    
     9    5    6 1    
    10    5   65 1    
    11    5   71 1    
    12    6    7 1    
    13    6   72 1    
    14    6   73 1    
    15    7    8 1    
    16    8    9 1    
    17    8   74 1    
    18    8   75 1    
    19    9   10 ar   
    20    9   14 ar   
    21   10   11 ar   
    22   10   76 1    
    23   11   12 ar   
    24   11   48 1    
    25   12   13 ar   
    26   12   77 1    
    27   13   14 ar   
    28   13   15 1    
    29   14   78 1    
    30   15   16 1    
    31   15   79 1    
    32   15   80 1    
    33   16   17 1    
    34   17   18 1    
    35   17   81 1    
    36   17   82 1    
    37   18   19 1    
    38   18   22 1    
    39   18   83 1    
    40   19   20 am   BACKBONE|DICT|INTERRES
    41   19   21 2    
    42   20   84 1    
    43   20   85 1    
    44   22   23 am   BACKBONE|DICT|INTERRES
    45   22   86 1    
    46   23   24 2    
    47   23   25 1    
    48   25   26 1    
    49   25   27 1    
    50   25   87 1    
    51   26   88 1    
    52   26   89 1    
    53   26   90 1    
    54   27   28 am   BACKBONE|DICT|INTERRES
    55   27   91 1    
    56   28   29 2    
    57   28   30 1    
    58   30   31 1    
    59   30   32 1    
    60   30   92 1    
    61   31   93 1    
    62   31   94 1    
    63   31   95 1    
    64   32   33 am   BACKBONE|DICT|INTERRES
    65   32   96 1    
    66   33   34 2    
    67   33   35 1    
    68   35   36 1    
    69   35   37 1    
    70   35   97 1    
    71   36   98 1    
    72   36   99 1    
    73   36  100 1    
    74   37   38 am   BACKBONE|DICT|INTERRES
    75   37  101 1    
    76   38   39 2    
    77   38   40 1    
    78   40   41 1    
    79   40   42 1    
    80   40  102 1    
    81   41  103 1    
    82   41  104 1    
    83   41  105 1    
    84   42   43 am   BACKBONE|DICT|INTERRES
    85   42  106 1    
    86   43   44 2    
    87   43   45 1    
    88   45   46 1    
    89   45   49 1    
    90   45  107 1    
    91   46   47 1    
    92   46  108 1    
    93   46  109 1    
    94   47   48 1    
    95   48  110 1    
    96   48  111 1    
    97   49   50 am   BACKBONE|DICT|INTERRES
    98   49  112 1    
    99   50   51 2    
   100   50   52 1    
   101   52   53 1    
   102   52   54 1    
   103   52  113 1    
   104   53  114 1    
   105   53  115 1    
   106   53  116 1    
   107   54   55 am   BACKBONE|DICT|INTERRES
   108   54  117 1    
   109   55   56 2    
   110   55   57 1    
   111   57   58 1    
   112   57   59 1    
   113   57  118 1    
   114   58  119 1    
   115   58  120 1    
   116   58  121 1    
   117   59   60 am   BACKBONE|DICT|INTERRES
   118   59  122 1    
   119   60   61 2    
   120   60   62 1    
   121   62   63 1    
   122   62   64 1    
   123   62  123 1    
   124   63  124 1    
   125   63  125 1    
   126   63  126 1    
   127   64   65 am   BACKBONE|DICT|INTERRES
   128   64  127 1    
   129   65   66 2    
@<TRIPOS>SUBSTRUCTURE
     1 UNK         1 GROUP             0       ****    0 ROOT    
