@<TRIPOS>MOLECULE
3R135
127   129    1
SMALL
USER_CHARGES


@<TRIPOS>ATOM
      1 CA        -78.5939   30.7236  -75.8321 C.3       0 UNK        -0.1998 
      2 C         -78.8494   29.5475  -74.9022 C.2       0 UNK         0.4909 
      3 O         -77.9937   28.6738  -74.7771 O.2       0 UNK        -0.5240 
      4 N         -80.0182   29.5236  -74.2509 N.am      1 UNK        -0.4739 
      5 CA        -80.4660   28.4265  -73.3864 C.3       1 UNK         0.0864 
      6 C6        -81.5327   28.8862  -72.3584 C.3       11 UNK        -0.0881 
      7 S7        -81.0381   30.3499  -71.3840 S.3       11 UNK        -0.2682 
      8 C8        -80.4278   29.6080  -69.8375 C.3       11 UNK         0.0289 
      9 C9        -79.0381   29.0110  -70.0035 C.ar      11 UNK        -0.0687 
     10 C10       -78.8563   27.6251  -70.0075 C.ar      11 UNK        -0.0823 
     11 C11       -77.5765   27.0819  -70.1526 C.ar      11 UNK        -0.0830 
     12 C12       -76.4747   27.9336  -70.2671 C.ar      11 UNK        -0.1021 
     13 C13       -76.6427   29.3221  -70.2885 C.ar      11 UNK        -0.0753 
     14 C14       -77.9290   29.8516  -70.1460 C.ar      11 UNK        -0.0933 
     15 C15       -75.4540   30.2676  -70.4614 C.3       11 UNK         0.0166 
     16 S16       -74.1518   29.6505  -71.5869 S.3       11 UNK        -0.2615 
     17 C17       -75.0628   29.4420  -73.1582 C.3       11 UNK        -0.0865 
     18 CA        -74.6717   30.4014  -74.3193 C.3       10 UNK         0.0862 
     19 C         -75.0643   31.8933  -74.0870 C.2       10 UNK         0.5551 
     20 N         -74.3684   32.8578  -74.6758 N.am      10 UNK        -0.7319 
     21 O         -76.0466   32.1855  -73.4101 O.2       10 UNK        -0.5018 
     22 N         -73.3327   30.1330  -74.8813 N.am      10 UNK        -0.4509 
     23 C         -72.1332   30.5329  -74.4377 C.2       10 UNK         0.4899 
     24 O         -71.9578   31.2402  -73.4454 O.2       10 UNK        -0.4839 
     25 CA        -70.9163   30.0691  -75.2695 C.3       9 UNK         0.0222 
     26 CB        -69.5878   30.6562  -74.7551 C.3       9 UNK        -0.1966 
     27 N         -70.7936   28.6083  -75.3324 N.am      9 UNK        -0.4218 
     28 C         -71.5618   27.7937  -76.0673 C.2       9 UNK         0.5020 
     29 O         -72.4687   28.2051  -76.7967 O.2       9 UNK        -0.5274 
     30 CA        -71.2638   26.2860  -75.9673 C.3       8 UNK         0.0270 
     31 CB        -71.2083   25.8089  -74.5026 C.3       8 UNK        -0.1976 
     32 N         -72.3148   25.5394  -76.6551 N.am      8 UNK        -0.4313 
     33 C         -72.1916   24.8914  -77.8209 C.2       8 UNK         0.5041 
     34 O         -71.1210   24.7486  -78.4140 O.2       8 UNK        -0.5577 
     35 CA        -73.4727   24.2941  -78.4411 C.3       7 UNK         0.0284 
     36 CB        -73.5350   22.7776  -78.1968 C.3       7 UNK        -0.1958 
     37 N         -74.6984   24.9077  -77.9271 N.am      7 UNK        -0.4454 
     38 C         -75.1085   26.1532  -78.2033 C.2       7 UNK         0.5089 
     39 O         -74.5953   26.8625  -79.0689 O.2       7 UNK        -0.5125 
     40 CA        -76.2735   26.7133  -77.3646 C.3       6 UNK         0.0408 
     41 CB        -77.5556   26.8024  -78.2067 C.3       6 UNK        -0.1791 
     42 N         -76.5650   25.9539  -76.1451 N.am      6 UNK        -0.4762 
     43 C         -75.7532   25.7996  -75.0888 C.2       6 UNK         0.5007 
     44 O         -74.6092   26.2461  -75.0320 O.2       6 UNK        -0.5032 
     45 CA        -76.3019   24.9520  -73.9281 C.3       5 UNK         0.0783 
     46 C46       -77.2700   25.7973  -73.0674 C.3       11 UNK        -0.0857 
     47 S47       -78.0941   24.8571  -71.7340 S.3       11 UNK        -0.2512 
     48 C48       -77.3773   25.5746  -70.2198 C.3       11 UNK         0.0225 
     49 N         -76.9234   23.7346  -74.4543 N.am      5 UNK        -0.4615 
     50 C         -76.2523   22.6536  -74.8704 C.2       4 UNK         0.5053 
     51 O         -75.0282   22.5468  -74.8071 O.2       4 UNK        -0.5105 
     52 CA        -77.0776   21.4955  -75.4608 C.3       4 UNK         0.0263 
     53 CB        -77.3972   20.4594  -74.3714 C.3       4 UNK        -0.1981 
     54 N         -78.3268   21.9387  -76.0852 N.am      4 UNK        -0.4224 
     55 C         -78.4020   22.6085  -77.2444 C.2       3 UNK         0.4895 
     56 O         -77.4286   22.8639  -77.9535 O.2       3 UNK        -0.5091 
     57 CA        -79.7971   23.1192  -77.6577 C.3       3 UNK         0.0250 
     58 CB        -80.5450   22.0482  -78.4677 C.3       3 UNK        -0.1996 
     59 N         -80.6347   23.5591  -76.5307 N.am      3 UNK        -0.4254 
     60 C         -80.2886   24.5207  -75.6630 C.2       2 UNK         0.5004 
     61 O         -79.2112   25.1135  -75.7177 O.2       2 UNK        -0.5226 
     62 CA        -81.2700   24.8231  -74.5157 C.3       2 UNK         0.0269 
     63 CB        -81.3279   23.6444  -73.5282 C.3       2 UNK        -0.1926 
     64 N         -80.8837   26.0332  -73.7795 N.am      2 UNK        -0.4687 
     65 C         -81.0271   27.2785  -74.2525 C.2       1 UNK         0.5165 
     66 O         -81.6187   27.5394  -75.3048 O.2       1 UNK        -0.5079 
     67 H67       -77.8493   31.3897  -75.3988 H         1 UNK         0.0900 
     68 H68       -79.5005   31.2994  -76.0165 H         1 UNK         0.0900 
     69 H69       -78.2183   30.3682  -76.7913 H         1 UNK         0.0900 
     70 H70       -80.6909   30.2615  -74.3989 H         1 UNK         0.2959 
     71 H71       -79.5993   28.0523  -72.8364 H         1 UNK         0.1079 
     72 H72       -82.4640   29.1420  -72.8681 H         1 UNK         0.0837 
     73 H73       -81.7816   28.0701  -71.6775 H         1 UNK         0.0837 
     74 H74       -80.3897   30.3834  -69.0711 H         1 UNK         0.0685 
     75 H75       -81.1387   28.8624  -69.4780 H         1 UNK         0.0685 
     76 H76       -79.7090   26.9665  -69.9126 H         1 UNK         0.1434 
     77 H77       -75.4852   27.5111  -70.3723 H         1 UNK         0.1329 
     78 H78       -78.0733   30.9235  -70.1539 H         1 UNK         0.1335 
     79 H79       -75.7920   31.2372  -70.8301 H         1 UNK         0.0680 
     80 H80       -75.0096   30.4474  -69.4820 H         1 UNK         0.0680 
     81 H81       -76.1350   29.5176  -72.9699 H         1 UNK         0.1032 
     82 H82       -74.9124   28.4129  -73.4843 H         1 UNK         0.1032 
     83 H83       -75.3306   30.1170  -75.1409 H         1 UNK         0.0461 
     84 H84       -74.6382   33.8183  -74.5351 H         1 UNK         0.3453 
     85 H85       -73.5582   32.6344  -75.2304 H         1 UNK         0.3453 
     86 H86       -73.3214   29.5305  -75.7004 H         1 UNK         0.2984 
     87 H87       -71.0645   30.4439  -76.2845 H         1 UNK         0.0554 
     88 H88       -68.7527   30.3739  -75.3964 H         1 UNK         0.0847 
     89 H89       -69.3623   30.3213  -73.7418 H         1 UNK         0.0847 
     90 H90       -69.6230   31.7464  -74.7371 H         1 UNK         0.0847 
     91 H91       -70.0896   28.1948  -74.7383 H         1 UNK         0.3141 
     92 H92       -70.2949   26.1040  -76.4362 H         1 UNK         0.0743 
     93 H93       -70.3548   26.2332  -73.9735 H         1 UNK         0.0784 
     94 H94       -72.1081   26.0875  -73.9521 H         1 UNK         0.0784 
     95 H95       -71.1082   24.7247  -74.4455 H         1 UNK         0.0784 
     96 H96       -73.2457   25.6834  -76.2715 H         1 UNK         0.3213 
     97 H97       -73.4296   24.4682  -79.5184 H         1 UNK         0.0855 
     98 H98       -72.6645   22.2783  -78.6244 H         1 UNK         0.0814 
     99 H99       -74.4204   22.3365  -78.6555 H         1 UNK         0.0814 
    100 H100      -73.5553   22.5413  -77.1323 H         1 UNK         0.0814 
    101 H101      -75.2211   24.3848  -77.2385 H         1 UNK         0.3105 
    102 H102      -75.9939   27.7233  -77.0578 H         1 UNK         0.0547 
    103 H103      -77.3975   27.4070  -79.1005 H         1 UNK         0.0837 
    104 H104      -77.8894   25.8164  -78.5313 H         1 UNK         0.0837 
    105 H105      -78.3674   27.2623  -77.6420 H         1 UNK         0.0837 
    106 H106      -77.5122   25.5833  -76.0665 H         1 UNK         0.3020 
    107 H107      -75.4556   24.6640  -73.2999 H         1 UNK         0.1245 
    108 H108      -78.0559   26.2279  -73.6868 H         1 UNK         0.0781 
    109 H109      -76.7345   26.6513  -72.6542 H         1 UNK         0.0781 
    110 H110      -76.3180   25.3169  -70.1738 H         1 UNK         0.0836 
    111 H111      -77.8437   25.1095  -69.3504 H         1 UNK         0.0836 
    112 H112      -77.9222   23.7833  -74.5996 H         1 UNK         0.3022 
    113 H113      -76.4657   21.0115  -76.2254 H         1 UNK         0.0747 
    114 H114      -77.9209   19.5970  -74.7844 H         1 UNK         0.0793 
    115 H115      -76.4826   20.0885  -73.9064 H         1 UNK         0.0793 
    116 H116      -78.0164   20.8827  -73.5792 H         1 UNK         0.0793 
    117 H117      -79.1809   21.7641  -75.5763 H         1 UNK         0.3047 
    118 H118      -79.6429   23.9862  -78.3033 H         1 UNK         0.0822 
    119 H119      -81.4867   22.4324  -78.8602 H         1 UNK         0.0807 
    120 H120      -80.7658   21.1655  -77.8662 H         1 UNK         0.0807 
    121 H121      -79.9510   21.7201  -79.3221 H         1 UNK         0.0807 
    122 H122      -81.5302   23.1033  -76.4265 H         1 UNK         0.2946 
    123 H123      -82.2619   24.9767  -74.9472 H         1 UNK         0.1144 
    124 H124      -81.9950   23.8597  -72.6932 H         1 UNK         0.0793 
    125 H125      -80.3454   23.4091  -73.1179 H         1 UNK         0.0793 
    126 H126      -81.7033   22.7408  -74.0098 H         1 UNK         0.0793 
    127 H127      -80.3662   25.8876  -72.9244 H         1 UNK         0.2896 
@<TRIPOS>BOND
     1    1    2 1    
     2    1   67 1    
     3    1   68 1    
     4    1   69 1    
     5    2    3 2    
     6    2    4 am   BACKBONE|DICT|INTERRES
     7    4    5 1    
     8    4   70 1    
     9    5    6 1    
    10    5   65 1    
    11    5   71 1    
    12    6    7 1    
    13    6   72 1    
    14    6   73 1    
    15    7    8 1    
    16    8    9 1    
    17    8   74 1    
    18    8   75 1    
    19    9   10 ar   
    20    9   14 ar   
    21   10   11 ar   
    22   10   76 1    
    23   11   12 ar   
    24   11   48 1    
    25   12   13 ar   
    26   12   77 1    
    27   13   14 ar   
    28   13   15 1    
    29   14   78 1    
    30   15   16 1    
    31   15   79 1    
    32   15   80 1    
    33   16   17 1    
    34   17   18 1    
    35   17   81 1    
    36   17   82 1    
    37   18   19 1    
    38   18   22 1    
    39   18   83 1    
    40   19   20 am   BACKBONE|DICT|INTERRES
    41   19   21 2    
    42   20   84 1    
    43   20   85 1    
    44   22   23 am   BACKBONE|DICT|INTERRES
    45   22   86 1    
    46   23   24 2    
    47   23   25 1    
    48   25   26 1    
    49   25   27 1    
    50   25   87 1    
    51   26   88 1    
    52   26   89 1    
    53   26   90 1    
    54   27   28 am   BACKBONE|DICT|INTERRES
    55   27   91 1    
    56   28   29 2    
    57   28   30 1    
    58   30   31 1    
    59   30   32 1    
    60   30   92 1    
    61   31   93 1    
    62   31   94 1    
    63   31   95 1    
    64   32   33 am   BACKBONE|DICT|INTERRES
    65   32   96 1    
    66   33   34 2    
    67   33   35 1    
    68   35   36 1    
    69   35   37 1    
    70   35   97 1    
    71   36   98 1    
    72   36   99 1    
    73   36  100 1    
    74   37   38 am   BACKBONE|DICT|INTERRES
    75   37  101 1    
    76   38   39 2    
    77   38   40 1    
    78   40   41 1    
    79   40   42 1    
    80   40  102 1    
    81   41  103 1    
    82   41  104 1    
    83   41  105 1    
    84   42   43 am   BACKBONE|DICT|INTERRES
    85   42  106 1    
    86   43   44 2    
    87   43   45 1    
    88   45   46 1    
    89   45   49 1    
    90   45  107 1    
    91   46   47 1    
    92   46  108 1    
    93   46  109 1    
    94   47   48 1    
    95   48  110 1    
    96   48  111 1    
    97   49   50 am   BACKBONE|DICT|INTERRES
    98   49  112 1    
    99   50   51 2    
   100   50   52 1    
   101   52   53 1    
   102   52   54 1    
   103   52  113 1    
   104   53  114 1    
   105   53  115 1    
   106   53  116 1    
   107   54   55 am   BACKBONE|DICT|INTERRES
   108   54  117 1    
   109   55   56 2    
   110   55   57 1    
   111   57   58 1    
   112   57   59 1    
   113   57  118 1    
   114   58  119 1    
   115   58  120 1    
   116   58  121 1    
   117   59   60 am   BACKBONE|DICT|INTERRES
   118   59  122 1    
   119   60   61 2    
   120   60   62 1    
   121   62   63 1    
   122   62   64 1    
   123   62  123 1    
   124   63  124 1    
   125   63  125 1    
   126   63  126 1    
   127   64   65 am   BACKBONE|DICT|INTERRES
   128   64  127 1    
   129   65   66 2    
@<TRIPOS>SUBSTRUCTURE
     1 UNK         1 GROUP             0       ****    0 ROOT    
