@<TRIPOS>MOLECULE
3R135
127   129    1
SMALL
USER_CHARGES


@<TRIPOS>ATOM
      1 CA        -77.1719   28.5448  -74.1937 C.3       0 UNK        -0.1998 
      2 C         -77.8891   29.8742  -74.3984 C.2       0 UNK         0.4909 
      3 O         -77.3040   30.7873  -74.9777 O.2       0 UNK        -0.5240 
      4 N         -79.1361   30.0380  -73.9412 N.am      1 UNK        -0.4739 
      5 CA        -79.9838   29.0005  -73.3441 C.3       1 UNK         0.0864 
      6 C6        -81.1065   29.5918  -72.4549 C.3       11 UNK        -0.0881 
      7 S7        -80.4904   30.7524  -71.1856 S.3       11 UNK        -0.2682 
      8 C8        -80.1092   29.6462  -69.7887 C.3       11 UNK         0.0289 
      9 C9        -78.8531   28.8198  -70.0329 C.ar      11 UNK        -0.0687 
     10 C10       -78.9348   27.4306  -70.1665 C.ar      11 UNK        -0.0823 
     11 C11       -77.7828   26.6699  -70.3894 C.ar      11 UNK        -0.0830 
     12 C12       -76.5388   27.3050  -70.4571 C.ar      11 UNK        -0.1021 
     13 C13       -76.4440   28.6940  -70.3291 C.ar      11 UNK        -0.0753 
     14 C14       -77.6047   29.4449  -70.1164 C.ar      11 UNK        -0.0933 
     15 C15       -75.0893   29.3836  -70.4086 C.3       11 UNK         0.0166 
     16 S16       -74.3893   29.3035  -72.0893 S.3       11 UNK        -0.2615 
     17 C17       -73.5620   30.9260  -72.2204 C.3       11 UNK        -0.0865 
     18 CA        -74.4207   31.9439  -73.0316 C.3       10 UNK         0.0862 
     19 C         -73.9561   33.4298  -72.9023 C.2       10 UNK         0.5551 
     20 N         -73.4357   33.8453  -71.7544 N.am      10 UNK        -0.7319 
     21 O         -74.1187   34.2385  -73.8151 O.2       10 UNK        -0.5018 
     22 N         -74.6253   31.5119  -74.4262 N.am      10 UNK        -0.4509 
     23 C         -73.6961   31.4663  -75.3898 C.2       10 UNK         0.4899 
     24 O         -72.5095   31.7577  -75.2234 O.2       10 UNK        -0.4839 
     25 CA        -74.1939   31.0017  -76.7729 C.3       9 UNK         0.0222 
     26 CB        -73.1606   31.2415  -77.8949 C.3       9 UNK        -0.1966 
     27 N         -74.6412   29.6022  -76.7717 N.am      9 UNK        -0.4218 
     28 C         -73.9209   28.5148  -76.4521 C.2       9 UNK         0.5020 
     29 O         -72.7426   28.5513  -76.0887 O.2       9 UNK        -0.5274 
     30 CA        -74.6439   27.1506  -76.5194 C.3       8 UNK         0.0270 
     31 CB        -75.8615   27.1106  -77.4723 C.3       8 UNK        -0.1976 
     32 N         -73.7157   26.0513  -76.8016 N.am      8 UNK        -0.4313 
     33 C         -72.9664   25.8728  -77.9012 C.2       8 UNK         0.5041 
     34 O         -73.0424   26.5804  -78.9075 O.2       8 UNK        -0.5577 
     35 CA        -71.9348   24.7258  -77.8845 C.3       7 UNK         0.0284 
     36 CB        -70.5039   25.2908  -77.8647 C.3       7 UNK        -0.1958 
     37 N         -72.0941   23.8121  -76.7500 N.am      7 UNK        -0.4454 
     38 C         -73.0067   22.8349  -76.6816 C.2       7 UNK         0.5089 
     39 O         -73.7717   22.5500  -77.6033 O.2       7 UNK        -0.5125 
     40 CA        -73.1066   22.0490  -75.3591 C.3       6 UNK         0.0408 
     41 CB        -71.9363   22.2912  -74.3780 C.3       6 UNK        -0.1791 
     42 N         -74.3938   22.2916  -74.7001 N.am      6 UNK        -0.4762 
     43 C         -74.8984   23.4682  -74.2997 C.2       6 UNK         0.5007 
     44 O         -74.2878   24.5344  -74.3994 O.2       6 UNK        -0.5032 
     45 CA        -76.3258   23.4407  -73.7051 C.3       5 UNK         0.0783 
     46 C46       -76.7567   24.8175  -73.1350 C.3       11 UNK        -0.0857 
     47 S47       -78.3579   24.7248  -72.2608 S.3       11 UNK        -0.2512 
     48 C48       -77.8920   25.1625  -70.5572 C.3       11 UNK         0.0225 
     49 N         -77.3001   22.9276  -74.6792 N.am      5 UNK        -0.4615 
     50 C         -77.4685   21.6360  -75.0012 C.2       4 UNK         0.5053 
     51 O         -76.7841   20.7317  -74.5192 O.2       4 UNK        -0.5105 
     52 CA        -78.5756   21.2613  -76.0057 C.3       4 UNK         0.0263 
     53 CB        -79.7071   20.5022  -75.2922 C.3       4 UNK        -0.1981 
     54 N         -79.1533   22.4066  -76.7075 N.am      4 UNK        -0.4224 
     55 C         -78.5766   23.0795  -77.7131 C.2       3 UNK         0.4895 
     56 O         -77.5028   22.7619  -78.2225 O.2       3 UNK        -0.5091 
     57 CA        -79.3214   24.3271  -78.2319 C.3       3 UNK         0.0250 
     58 CB        -80.0407   24.0138  -79.5541 C.3       3 UNK        -0.1996 
     59 N         -80.2900   24.8802  -77.2745 N.am      3 UNK        -0.4254 
     60 C         -79.9586   25.4097  -76.0894 C.2       2 UNK         0.5004 
     61 O         -78.7955   25.5074  -75.6937 O.2       2 UNK        -0.5226 
     62 CA        -81.1210   25.8104  -75.1671 C.3       2 UNK         0.0269 
     63 CB        -81.6569   24.5771  -74.4198 C.3       2 UNK        -0.1926 
     64 N         -80.6884   26.8057  -74.1852 N.am      2 UNK        -0.4687 
     65 C         -80.5763   28.1114  -74.4538 C.2       1 UNK         0.5165 
     66 O         -80.9339   28.6213  -75.5191 O.2       1 UNK        -0.5079 
     67 H67       -77.2198   28.2141  -73.1578 H         1 UNK         0.0900 
     68 H68       -76.1178   28.6555  -74.4339 H         1 UNK         0.0900 
     69 H69       -77.5914   27.7707  -74.8345 H         1 UNK         0.0900 
     70 H70       -79.5920   30.9261  -74.0902 H         1 UNK         0.2959 
     71 H71       -79.3689   28.3681  -72.7068 H         1 UNK         0.1079 
     72 H72       -81.8295   30.1342  -73.0676 H         1 UNK         0.0837 
     73 H73       -81.6679   28.7945  -71.9638 H         1 UNK         0.0837 
     74 H74       -79.9611   30.2530  -68.8943 H         1 UNK         0.0685 
     75 H75       -80.9698   29.0076  -69.5836 H         1 UNK         0.0685 
     76 H76       -79.8964   26.9389  -70.1073 H         1 UNK         0.1434 
     77 H77       -75.6419   26.7243  -70.6230 H         1 UNK         0.1329 
     78 H78       -77.5419   30.5200  -70.0169 H         1 UNK         0.1335 
     79 H79       -74.3961   28.9147  -69.7089 H         1 UNK         0.0680 
     80 H80       -75.1865   30.4239  -70.0948 H         1 UNK         0.0680 
     81 H81       -72.5892   30.7846  -72.6936 H         1 UNK         0.1032 
     82 H82       -73.3466   31.2825  -71.2134 H         1 UNK         0.1032 
     83 H83       -75.4202   31.9448  -72.5946 H         1 UNK         0.0461 
     84 H84       -73.3208   33.2247  -70.9697 H         1 UNK         0.3453 
     85 H85       -73.1589   34.8111  -71.6696 H         1 UNK         0.3453 
     86 H86       -75.5853   31.2723  -74.6680 H         1 UNK         0.2984 
     87 H87       -75.0724   31.6056  -77.0060 H         1 UNK         0.0554 
     88 H88       -72.8787   32.2939  -77.9455 H         1 UNK         0.0847 
     89 H89       -73.5622   30.9659  -78.8698 H         1 UNK         0.0847 
     90 H90       -72.2462   30.6687  -77.7364 H         1 UNK         0.0847 
     91 H91       -75.6081   29.4629  -77.0286 H         1 UNK         0.3141 
     92 H92       -75.0105   26.9539  -75.5119 H         1 UNK         0.0743 
     93 H93       -76.2996   26.1123  -77.4999 H         1 UNK         0.0784 
     94 H94       -75.5895   27.3817  -78.4930 H         1 UNK         0.0784 
     95 H95       -76.6522   27.7872  -77.1483 H         1 UNK         0.0784 
     96 H96       -73.5856   25.4118  -76.0229 H         1 UNK         0.3213 
     97 H97       -72.0642   24.1612  -78.8106 H         1 UNK         0.0855 
     98 H98       -70.3160   25.8819  -76.9674 H         1 UNK         0.0814 
     99 H99       -70.3294   25.9410  -78.7233 H         1 UNK         0.0814 
    100 H100      -69.7602   24.4949  -77.9079 H         1 UNK         0.0814 
    101 H101      -71.5163   23.9864  -75.9403 H         1 UNK         0.3105 
    102 H102      -73.0931   20.9925  -75.6308 H         1 UNK         0.0547 
    103 H103      -70.9767   22.0643  -74.8448 H         1 UNK         0.0837 
    104 H104      -71.8975   23.3189  -74.0159 H         1 UNK         0.0837 
    105 H105      -72.0226   21.6435  -73.5056 H         1 UNK         0.0837 
    106 H106      -75.0139   21.4883  -74.6315 H         1 UNK         0.3020 
    107 H107      -76.2875   22.7444  -72.8640 H         1 UNK         0.1245 
    108 H108      -75.9970   25.2016  -72.4532 H         1 UNK         0.0781 
    109 H109      -76.8391   25.5549  -73.9342 H         1 UNK         0.0781 
    110 H110      -76.9590   24.6676  -70.2830 H         1 UNK         0.0836 
    111 H111      -78.6503   24.7742  -69.8756 H         1 UNK         0.0836 
    112 H112      -77.8806   23.6309  -75.1215 H         1 UNK         0.3022 
    113 H113      -78.1283   20.5938  -76.7454 H         1 UNK         0.0747 
    114 H114      -80.4694   20.1697  -75.9972 H         1 UNK         0.0793 
    115 H115      -79.3255   19.6123  -74.7894 H         1 UNK         0.0793 
    116 H116      -80.1935   21.1197  -74.5357 H         1 UNK         0.0793 
    117 H117      -80.0425   22.7402  -76.3677 H         1 UNK         0.3047 
    118 H118      -78.5679   25.0940  -78.4246 H         1 UNK         0.0822 
    119 H119      -80.5004   24.9068  -79.9781 H         1 UNK         0.0807 
    120 H120      -80.8207   23.2628  -79.4223 H         1 UNK         0.0807 
    121 H121      -79.3408   23.6291  -80.2974 H         1 UNK         0.0807 
    122 H122      -81.2651   24.8221  -77.5331 H         1 UNK         0.2946 
    123 H123      -81.9250   26.2311  -75.7760 H         1 UNK         0.1144 
    124 H124      -82.4651   24.8467  -73.7396 H         1 UNK         0.0793 
    125 H125      -80.8783   24.0860  -73.8348 H         1 UNK         0.0793 
    126 H126      -82.0573   23.8378  -75.1145 H         1 UNK         0.0793 
    127 H127      -80.3222   26.4409  -73.3169 H         1 UNK         0.2896 
@<TRIPOS>BOND
     1    1    2 1    
     2    1   67 1    
     3    1   68 1    
     4    1   69 1    
     5    2    3 2    
     6    2    4 am   BACKBONE|DICT|INTERRES
     7    4    5 1    
     8    4   70 1    
     9    5    6 1    
    10    5   65 1    
    11    5   71 1    
    12    6    7 1    
    13    6   72 1    
    14    6   73 1    
    15    7    8 1    
    16    8    9 1    
    17    8   74 1    
    18    8   75 1    
    19    9   10 ar   
    20    9   14 ar   
    21   10   11 ar   
    22   10   76 1    
    23   11   12 ar   
    24   11   48 1    
    25   12   13 ar   
    26   12   77 1    
    27   13   14 ar   
    28   13   15 1    
    29   14   78 1    
    30   15   16 1    
    31   15   79 1    
    32   15   80 1    
    33   16   17 1    
    34   17   18 1    
    35   17   81 1    
    36   17   82 1    
    37   18   19 1    
    38   18   22 1    
    39   18   83 1    
    40   19   20 am   BACKBONE|DICT|INTERRES
    41   19   21 2    
    42   20   84 1    
    43   20   85 1    
    44   22   23 am   BACKBONE|DICT|INTERRES
    45   22   86 1    
    46   23   24 2    
    47   23   25 1    
    48   25   26 1    
    49   25   27 1    
    50   25   87 1    
    51   26   88 1    
    52   26   89 1    
    53   26   90 1    
    54   27   28 am   BACKBONE|DICT|INTERRES
    55   27   91 1    
    56   28   29 2    
    57   28   30 1    
    58   30   31 1    
    59   30   32 1    
    60   30   92 1    
    61   31   93 1    
    62   31   94 1    
    63   31   95 1    
    64   32   33 am   BACKBONE|DICT|INTERRES
    65   32   96 1    
    66   33   34 2    
    67   33   35 1    
    68   35   36 1    
    69   35   37 1    
    70   35   97 1    
    71   36   98 1    
    72   36   99 1    
    73   36  100 1    
    74   37   38 am   BACKBONE|DICT|INTERRES
    75   37  101 1    
    76   38   39 2    
    77   38   40 1    
    78   40   41 1    
    79   40   42 1    
    80   40  102 1    
    81   41  103 1    
    82   41  104 1    
    83   41  105 1    
    84   42   43 am   BACKBONE|DICT|INTERRES
    85   42  106 1    
    86   43   44 2    
    87   43   45 1    
    88   45   46 1    
    89   45   49 1    
    90   45  107 1    
    91   46   47 1    
    92   46  108 1    
    93   46  109 1    
    94   47   48 1    
    95   48  110 1    
    96   48  111 1    
    97   49   50 am   BACKBONE|DICT|INTERRES
    98   49  112 1    
    99   50   51 2    
   100   50   52 1    
   101   52   53 1    
   102   52   54 1    
   103   52  113 1    
   104   53  114 1    
   105   53  115 1    
   106   53  116 1    
   107   54   55 am   BACKBONE|DICT|INTERRES
   108   54  117 1    
   109   55   56 2    
   110   55   57 1    
   111   57   58 1    
   112   57   59 1    
   113   57  118 1    
   114   58  119 1    
   115   58  120 1    
   116   58  121 1    
   117   59   60 am   BACKBONE|DICT|INTERRES
   118   59  122 1    
   119   60   61 2    
   120   60   62 1    
   121   62   63 1    
   122   62   64 1    
   123   62  123 1    
   124   63  124 1    
   125   63  125 1    
   126   63  126 1    
   127   64   65 am   BACKBONE|DICT|INTERRES
   128   64  127 1    
   129   65   66 2    
@<TRIPOS>SUBSTRUCTURE
     1 UNK         1 GROUP             0       ****    0 ROOT    
