@<TRIPOS>MOLECULE
3R135
127   129    1
SMALL
USER_CHARGES


@<TRIPOS>ATOM
      1 CA        -83.7063   23.4928  -70.5508 C.3       0 UNK        -0.1998 
      2 C         -83.2968   24.7839  -71.2431 C.2       0 UNK         0.4909 
      3 O         -84.1526   25.6189  -71.5374 O.2       0 UNK        -0.5240 
      4 N         -81.9938   24.9546  -71.5034 N.am      1 UNK        -0.4739 
      5 CA        -81.4179   26.1356  -72.1619 C.3       1 UNK         0.0864 
      6 C6        -79.8808   26.1950  -71.9866 C.3       11 UNK        -0.0881 
      7 S7        -79.3677   26.4034  -70.2475 S.3       11 UNK        -0.2682 
      8 C8        -79.5701   28.1978  -69.9881 C.3       11 UNK         0.0289 
      9 C9        -78.6403   29.0220  -70.8671 C.ar      11 UNK        -0.0687 
     10 C10       -79.1004   29.5369  -72.0830 C.ar      11 UNK        -0.0823 
     11 C11       -78.2465   30.2655  -72.9138 C.ar      11 UNK        -0.0830 
     12 C12       -76.9355   30.5168  -72.5014 C.ar      11 UNK        -0.1021 
     13 C13       -76.4672   30.0189  -71.2828 C.ar      11 UNK        -0.0753 
     14 C14       -77.3223   29.2688  -70.4691 C.ar      11 UNK        -0.0933 
     15 C15       -75.0301   30.2793  -70.8661 C.3       11 UNK         0.0166 
     16 S16       -73.9269   29.0308  -71.5873 S.3       11 UNK        -0.2615 
     17 C17       -72.2939   29.7927  -71.2946 C.3       11 UNK        -0.0865 
     18 CA        -71.7517   30.5817  -72.5185 C.3       10 UNK         0.0862 
     19 C         -70.3421   31.1589  -72.1966 C.2       10 UNK         0.5551 
     20 N         -69.2652   30.6339  -72.7689 N.am      10 UNK        -0.7319 
     21 O         -70.2289   32.0957  -71.4102 O.2       10 UNK        -0.5018 
     22 N         -71.8354   29.7832  -73.7512 N.am      10 UNK        -0.4509 
     23 C         -71.6158   30.2069  -75.0021 C.2       10 UNK         0.4899 
     24 O         -71.3255   31.3698  -75.2849 O.2       10 UNK        -0.4839 
     25 CA        -71.7731   29.1742  -76.1400 C.3       9 UNK         0.0222 
     26 CB        -70.5678   29.1851  -77.1028 C.3       9 UNK        -0.1966 
     27 N         -72.0837   27.8080  -75.6902 N.am      9 UNK        -0.4218 
     28 C         -71.3044   26.9726  -74.9842 C.2       9 UNK         0.5020 
     29 O         -70.1562   27.2366  -74.6258 O.2       9 UNK        -0.5274 
     30 CA        -71.9296   25.6369  -74.5550 C.3       8 UNK         0.0270 
     31 CB        -72.7240   25.8175  -73.2514 C.3       8 UNK        -0.1976 
     32 N         -72.7930   25.0555  -75.5855 N.am      8 UNK        -0.4313 
     33 C         -72.3280   24.4460  -76.6862 C.2       8 UNK         0.5041 
     34 O         -71.1300   24.2914  -76.9287 O.2       8 UNK        -0.5577 
     35 CA        -73.3662   23.9136  -77.6882 C.3       7 UNK         0.0284 
     36 CB        -73.9686   22.5891  -77.1951 C.3       7 UNK        -0.1958 
     37 N         -74.4324   24.8770  -77.9686 N.am      7 UNK        -0.4454 
     38 C         -74.2476   26.0373  -78.6151 C.2       7 UNK         0.5089 
     39 O         -73.1657   26.4082  -79.0708 O.2       7 UNK        -0.5125 
     40 CA        -75.4762   26.9472  -78.7739 C.3       6 UNK         0.0408 
     41 CB        -76.2875   26.5537  -80.0184 C.3       6 UNK        -0.1791 
     42 N         -76.3481   26.9410  -77.5987 N.am      6 UNK        -0.4762 
     43 C         -76.0102   27.4259  -76.3947 C.2       6 UNK         0.5007 
     44 O         -74.9080   27.9077  -76.1319 O.2       6 UNK        -0.5032 
     45 CA        -77.0777   27.2979  -75.2878 C.3       5 UNK         0.0783 
     46 C46       -78.2777   28.2560  -75.5305 C.3       11 UNK        -0.0857 
     47 S47       -77.8243   30.0253  -75.6475 S.3       11 UNK        -0.2512 
     48 C48       -78.7376   30.7733  -74.2605 C.3       11 UNK         0.0225 
     49 N         -77.5177   25.9002  -75.1649 N.am      5 UNK        -0.4615 
     50 C         -76.7113   24.8664  -74.8638 C.2       4 UNK         0.5053 
     51 O         -75.5255   24.9938  -74.5639 O.2       4 UNK        -0.5105 
     52 CA        -77.2840   23.4387  -74.9721 C.3       4 UNK         0.0263 
     53 CB        -77.7633   22.9226  -73.6070 C.3       4 UNK        -0.1981 
     54 N         -78.3605   23.3001  -75.9518 N.am      4 UNK        -0.4224 
     55 C         -78.2568   23.5631  -77.2624 C.2       3 UNK         0.4895 
     56 O         -77.1975   23.8548  -77.8189 O.2       3 UNK        -0.5091 
     57 CA        -79.5655   23.5593  -78.0770 C.3       3 UNK         0.0250 
     58 CB        -79.7167   22.2331  -78.8383 C.3       3 UNK        -0.1996 
     59 N         -80.7806   23.8077  -77.2834 N.am      3 UNK        -0.4254 
     60 C         -81.0072   24.8945  -76.5280 C.2       2 UNK         0.5004 
     61 O         -80.1893   25.8074  -76.4132 O.2       2 UNK        -0.5226 
     62 CA        -82.3270   24.9624  -75.7341 C.3       2 UNK         0.0269 
     63 CB        -83.2600   23.7530  -75.9519 C.3       2 UNK        -0.1926 
     64 N         -82.0444   25.0871  -74.3021 N.am      2 UNK        -0.4687 
     65 C         -81.7871   26.2356  -73.6580 C.2       1 UNK         0.5165 
     66 O         -81.8325   27.3463  -74.1884 O.2       1 UNK        -0.5079 
     67 H67       -84.1992   23.7149  -69.6047 H         1 UNK         0.0900 
     68 H68       -82.8500   22.8511  -70.3440 H         1 UNK         0.0900 
     69 H69       -84.4039   22.9366  -71.1764 H         1 UNK         0.0900 
     70 H70       -81.3315   24.2512  -71.2079 H         1 UNK         0.2959 
     71 H71       -81.8497   27.0195  -71.6875 H         1 UNK         0.1079 
     72 H72       -79.4357   26.9832  -72.5917 H         1 UNK         0.0837 
     73 H73       -79.4277   25.2757  -72.3532 H         1 UNK         0.0837 
     74 H74       -80.6099   28.4768  -70.1639 H         1 UNK         0.0685 
     75 H75       -79.3729   28.4227  -68.9389 H         1 UNK         0.0685 
     76 H76       -80.1183   29.3454  -72.3952 H         1 UNK         0.1434 
     77 H77       -76.2707   31.0802  -73.1424 H         1 UNK         0.1329 
     78 H78       -76.9600   28.8679  -69.5322 H         1 UNK         0.1335 
     79 H79       -74.9354   30.2670  -69.7792 H         1 UNK         0.0680 
     80 H80       -74.7246   31.2735  -71.1964 H         1 UNK         0.0680 
     81 H81       -71.6024   28.9905  -71.0292 H         1 UNK         0.1032 
     82 H82       -72.3506   30.4383  -70.4157 H         1 UNK         0.1032 
     83 H83       -72.4048   31.4431  -72.6693 H         1 UNK         0.0461 
     84 H84       -69.3577   29.8607  -73.4097 H         1 UNK         0.3453 
     85 H85       -68.3554   31.0123  -72.5576 H         1 UNK         0.3453 
     86 H86       -72.0895   28.8162  -73.6217 H         1 UNK         0.2984 
     87 H87       -72.6460   29.4949  -76.7101 H         1 UNK         0.0554 
     88 H88       -70.7055   28.4720  -77.9158 H         1 UNK         0.0847 
     89 H89       -69.6359   28.9391  -76.5934 H         1 UNK         0.0847 
     90 H90       -70.4376   30.1690  -77.5550 H         1 UNK         0.0847 
     91 H91       -73.0441   27.5260  -75.8754 H         1 UNK         0.3141 
     92 H92       -71.1140   24.9384  -74.3551 H         1 UNK         0.0743 
     93 H93       -73.5677   26.4964  -73.3830 H         1 UNK         0.0784 
     94 H94       -73.1169   24.8662  -72.8923 H         1 UNK         0.0784 
     95 H95       -72.0945   26.2279  -72.4606 H         1 UNK         0.0784 
     96 H96       -73.7965   25.1071  -75.4236 H         1 UNK         0.3213 
     97 H97       -72.8491   23.7160  -78.6298 H         1 UNK         0.0855 
     98 H98       -74.4153   22.6940  -76.2077 H         1 UNK         0.0814 
     99 H99       -73.1988   21.8202  -77.1191 H         1 UNK         0.0814 
    100 H100      -74.7341   22.2172  -77.8766 H         1 UNK         0.0814 
    101 H101      -75.3782   24.6216  -77.6978 H         1 UNK         0.3105 
    102 H102      -75.1154   27.9686  -78.9134 H         1 UNK         0.0547 
    103 H103      -76.6959   25.5458  -79.9351 H         1 UNK         0.0837 
    104 H104      -77.1175   27.2402  -80.1854 H         1 UNK         0.0837 
    105 H105      -75.6636   26.5783  -80.9129 H         1 UNK         0.0837 
    106 H106      -77.2542   26.5077  -77.7064 H         1 UNK         0.3020 
    107 H107      -76.6039   27.5779  -74.3435 H         1 UNK         0.1245 
    108 H108      -78.7913   27.9958  -76.4570 H         1 UNK         0.0781 
    109 H109      -79.0194   28.1254  -74.7419 H         1 UNK         0.0781 
    110 H110      -78.6139   31.8564  -74.2988 H         1 UNK         0.0836 
    111 H111      -79.8041   30.5813  -74.3906 H         1 UNK         0.0836 
    112 H112      -78.4715   25.7130  -75.4605 H         1 UNK         0.3022 
    113 H113      -76.4692   22.7923  -75.2980 H         1 UNK         0.0747 
    114 H114      -77.9355   21.8465  -73.6343 H         1 UNK         0.0793 
    115 H115      -77.0201   23.1091  -72.8301 H         1 UNK         0.0793 
    116 H116      -78.6925   23.3963  -73.2967 H         1 UNK         0.0793 
    117 H117      -79.2720   23.0585  -75.5932 H         1 UNK         0.3047 
    118 H118      -79.4847   24.3664  -78.8081 H         1 UNK         0.0822 
    119 H119      -80.5793   22.2529  -79.5047 H         1 UNK         0.0807 
    120 H120      -79.8345   21.3879  -78.1589 H         1 UNK         0.0807 
    121 H121      -78.8388   22.0350  -79.4554 H         1 UNK         0.0807 
    122 H122      -81.4970   23.0969  -77.3233 H         1 UNK         0.2946 
    123 H123      -82.8513   25.8576  -76.0768 H         1 UNK         0.1144 
    124 H124      -84.1898   23.8767  -75.3957 H         1 UNK         0.0793 
    125 H125      -82.8070   22.8161  -75.6246 H         1 UNK         0.0793 
    126 H126      -83.5363   23.6472  -77.0020 H         1 UNK         0.0793 
    127 H127      -81.9870   24.2291  -73.7733 H         1 UNK         0.2896 
@<TRIPOS>BOND
     1    1    2 1    
     2    1   67 1    
     3    1   68 1    
     4    1   69 1    
     5    2    3 2    
     6    2    4 am   BACKBONE|DICT|INTERRES
     7    4    5 1    
     8    4   70 1    
     9    5    6 1    
    10    5   65 1    
    11    5   71 1    
    12    6    7 1    
    13    6   72 1    
    14    6   73 1    
    15    7    8 1    
    16    8    9 1    
    17    8   74 1    
    18    8   75 1    
    19    9   10 ar   
    20    9   14 ar   
    21   10   11 ar   
    22   10   76 1    
    23   11   12 ar   
    24   11   48 1    
    25   12   13 ar   
    26   12   77 1    
    27   13   14 ar   
    28   13   15 1    
    29   14   78 1    
    30   15   16 1    
    31   15   79 1    
    32   15   80 1    
    33   16   17 1    
    34   17   18 1    
    35   17   81 1    
    36   17   82 1    
    37   18   19 1    
    38   18   22 1    
    39   18   83 1    
    40   19   20 am   BACKBONE|DICT|INTERRES
    41   19   21 2    
    42   20   84 1    
    43   20   85 1    
    44   22   23 am   BACKBONE|DICT|INTERRES
    45   22   86 1    
    46   23   24 2    
    47   23   25 1    
    48   25   26 1    
    49   25   27 1    
    50   25   87 1    
    51   26   88 1    
    52   26   89 1    
    53   26   90 1    
    54   27   28 am   BACKBONE|DICT|INTERRES
    55   27   91 1    
    56   28   29 2    
    57   28   30 1    
    58   30   31 1    
    59   30   32 1    
    60   30   92 1    
    61   31   93 1    
    62   31   94 1    
    63   31   95 1    
    64   32   33 am   BACKBONE|DICT|INTERRES
    65   32   96 1    
    66   33   34 2    
    67   33   35 1    
    68   35   36 1    
    69   35   37 1    
    70   35   97 1    
    71   36   98 1    
    72   36   99 1    
    73   36  100 1    
    74   37   38 am   BACKBONE|DICT|INTERRES
    75   37  101 1    
    76   38   39 2    
    77   38   40 1    
    78   40   41 1    
    79   40   42 1    
    80   40  102 1    
    81   41  103 1    
    82   41  104 1    
    83   41  105 1    
    84   42   43 am   BACKBONE|DICT|INTERRES
    85   42  106 1    
    86   43   44 2    
    87   43   45 1    
    88   45   46 1    
    89   45   49 1    
    90   45  107 1    
    91   46   47 1    
    92   46  108 1    
    93   46  109 1    
    94   47   48 1    
    95   48  110 1    
    96   48  111 1    
    97   49   50 am   BACKBONE|DICT|INTERRES
    98   49  112 1    
    99   50   51 2    
   100   50   52 1    
   101   52   53 1    
   102   52   54 1    
   103   52  113 1    
   104   53  114 1    
   105   53  115 1    
   106   53  116 1    
   107   54   55 am   BACKBONE|DICT|INTERRES
   108   54  117 1    
   109   55   56 2    
   110   55   57 1    
   111   57   58 1    
   112   57   59 1    
   113   57  118 1    
   114   58  119 1    
   115   58  120 1    
   116   58  121 1    
   117   59   60 am   BACKBONE|DICT|INTERRES
   118   59  122 1    
   119   60   61 2    
   120   60   62 1    
   121   62   63 1    
   122   62   64 1    
   123   62  123 1    
   124   63  124 1    
   125   63  125 1    
   126   63  126 1    
   127   64   65 am   BACKBONE|DICT|INTERRES
   128   64  127 1    
   129   65   66 2    
@<TRIPOS>SUBSTRUCTURE
     1 UNK         1 GROUP             0       ****    0 ROOT    
