@<TRIPOS>MOLECULE
3R135
127   129    1
SMALL
USER_CHARGES


@<TRIPOS>ATOM
      1 CA        -81.9092   26.0622  -72.1725 C.3       0 UNK        -0.1998 
      2 C         -81.3203   26.4586  -73.5166 C.2       0 UNK         0.4909 
      3 O         -80.5006   25.7218  -74.0621 O.2       0 UNK        -0.5240 
      4 N         -81.7484   27.6038  -74.0676 N.am      1 UNK        -0.4739 
      5 CA        -81.2735   28.1948  -75.3329 C.3       1 UNK         0.0864 
      6 C6        -79.8091   28.7091  -75.2391 C.3       11 UNK        -0.0881 
      7 S7        -79.6521   30.1186  -74.0938 S.3       11 UNK        -0.2682 
      8 C8        -77.8400   30.1927  -73.8789 C.3       11 UNK         0.0289 
      9 C9        -77.3188   29.5726  -72.5815 C.ar      11 UNK        -0.0687 
     10 C10       -77.9770   28.5197  -71.9296 C.ar      11 UNK        -0.0823 
     11 C11       -77.4746   27.9996  -70.7317 C.ar      11 UNK        -0.0830 
     12 C12       -76.3027   28.5295  -70.1877 C.ar      11 UNK        -0.1021 
     13 C13       -75.6205   29.5582  -70.8389 C.ar      11 UNK        -0.0753 
     14 C14       -76.1339   30.0747  -72.0320 C.ar      11 UNK        -0.0933 
     15 C15       -74.3331   30.1154  -70.2483 C.3       11 UNK         0.0166 
     16 S16       -72.9771   28.8939  -70.2287 S.3       11 UNK        -0.2615 
     17 C17       -72.7956   28.4839  -71.9997 C.3       11 UNK        -0.0865 
     18 CA        -72.0873   29.5969  -72.8194 C.3       10 UNK         0.0862 
     19 C         -70.5315   29.5138  -72.7760 C.2       10 UNK         0.5551 
     20 N         -69.8190   29.7776  -73.8659 N.am      10 UNK        -0.7319 
     21 O         -69.9484   29.2295  -71.7329 O.2       10 UNK        -0.5018 
     22 N         -72.6146   29.6325  -74.1888 N.am      10 UNK        -0.4509 
     23 C         -73.2201   30.6762  -74.7699 C.2       10 UNK         0.4899 
     24 O         -73.5101   31.7155  -74.1756 O.2       10 UNK        -0.4839 
     25 CA        -73.5603   30.5443  -76.2714 C.3       9 UNK         0.0222 
     26 CB        -73.5470   31.9030  -77.0029 C.3       9 UNK        -0.1966 
     27 N         -72.7302   29.5627  -76.9831 N.am      9 UNK        -0.4218 
     28 C         -71.3906   29.5553  -77.0927 C.2       9 UNK         0.5020 
     29 O         -70.6692   30.4591  -76.6663 O.2       9 UNK        -0.5274 
     30 CA        -70.7428   28.3047  -77.7285 C.3       8 UNK         0.0270 
     31 CB        -69.3024   28.0683  -77.2257 C.3       8 UNK        -0.1976 
     32 N         -71.5386   27.0776  -77.5772 N.am      8 UNK        -0.4313 
     33 C         -71.9884   26.5340  -76.4356 C.2       8 UNK         0.5041 
     34 O         -71.7753   26.9949  -75.3114 O.2       8 UNK        -0.5577 
     35 CA        -72.8984   25.3028  -76.5941 C.3       7 UNK         0.0284 
     36 CB        -72.3329   24.1070  -75.8110 C.3       7 UNK        -0.1958 
     37 N         -74.2792   25.5594  -76.1660 N.am      7 UNK        -0.4454 
     38 C         -75.0484   26.5937  -76.5448 C.2       7 UNK         0.5089 
     39 O         -74.6809   27.4562  -77.3454 O.2       7 UNK        -0.5125 
     40 CA        -76.4823   26.6901  -75.9865 C.3       6 UNK         0.0408 
     41 CB        -77.4895   26.5933  -77.1426 C.3       6 UNK        -0.1791 
     42 N         -76.8342   25.6844  -74.9818 N.am      6 UNK        -0.4762 
     43 C         -76.3382   25.6006  -73.7364 C.2       6 UNK         0.5007 
     44 O         -75.5072   26.3860  -73.2853 O.2       6 UNK        -0.5032 
     45 CA        -76.8049   24.4024  -72.8733 C.3       5 UNK         0.0783 
     46 C46       -77.9530   24.8021  -71.9073 C.3       11 UNK        -0.0857 
     47 S47       -77.3634   25.2734  -70.2508 S.3       11 UNK        -0.2512 
     48 C48       -78.1937   26.8750  -70.0045 C.3       11 UNK         0.0225 
     49 N         -77.2004   23.2433  -73.6809 N.am      5 UNK        -0.4615 
     50 C         -76.4361   22.5892  -74.5659 C.2       4 UNK         0.5053 
     51 O         -75.2372   22.8152  -74.7248 O.2       4 UNK        -0.5105 
     52 CA        -77.1343   21.5425  -75.4590 C.3       4 UNK         0.0263 
     53 CB        -76.7359   20.1213  -75.0292 C.3       4 UNK        -0.1981 
     54 N         -78.6021   21.6419  -75.4898 N.am      4 UNK        -0.4224 
     55 C         -79.3063   22.7069  -75.9035 C.2       3 UNK         0.4895 
     56 O         -78.7847   23.7361  -76.3377 O.2       3 UNK        -0.5091 
     57 CA        -80.8332   22.6077  -75.7542 C.3       3 UNK         0.0250 
     58 CB        -81.2343   22.3252  -74.2925 C.3       3 UNK        -0.1996 
     59 N         -81.4733   23.8578  -76.1643 N.am      3 UNK        -0.4254 
     60 C         -82.1798   24.0355  -77.2885 C.2       2 UNK         0.5004 
     61 O         -82.3516   23.1509  -78.1290 O.2       2 UNK        -0.5226 
     62 CA        -82.8443   25.4083  -77.5151 C.3       2 UNK         0.0269 
     63 CB        -84.3760   25.2632  -77.5602 C.3       2 UNK        -0.1926 
     64 N         -82.5041   26.3889  -76.4798 N.am      2 UNK        -0.4687 
     65 C         -81.5185   27.2924  -76.5707 C.2       1 UNK         0.5165 
     66 O         -80.8378   27.4393  -77.5867 O.2       1 UNK        -0.5079 
     67 H67       -81.1162   25.7693  -71.4859 H         1 UNK         0.0900 
     68 H68       -82.5801   25.2124  -72.2957 H         1 UNK         0.0900 
     69 H69       -82.4687   26.8786  -71.7164 H         1 UNK         0.0900 
     70 H70       -82.4355   28.1569  -73.5736 H         1 UNK         0.2959 
     71 H71       -81.9092   29.0637  -75.5117 H         1 UNK         0.1079 
     72 H72       -79.4426   29.0500  -76.2091 H         1 UNK         0.0837 
     73 H73       -79.1399   27.9087  -74.9203 H         1 UNK         0.0837 
     74 H74       -77.5588   31.2466  -73.9087 H         1 UNK         0.0685 
     75 H75       -77.3407   29.7263  -74.7279 H         1 UNK         0.0685 
     76 H76       -78.8828   28.1053  -72.3481 H         1 UNK         0.1434 
     77 H77       -75.9084   28.1272  -69.2643 H         1 UNK         0.1329 
     78 H78       -75.6076   30.8748  -72.5350 H         1 UNK         0.1335 
     79 H79       -74.5250   30.4396  -69.2246 H         1 UNK         0.0680 
     80 H80       -74.0105   31.0049  -70.7911 H         1 UNK         0.0680 
     81 H81       -73.7925   28.2888  -72.3979 H         1 UNK         0.1032 
     82 H82       -72.2678   27.5332  -72.0961 H         1 UNK         0.1032 
     83 H83       -72.3094   30.5534  -72.3463 H         1 UNK         0.0461 
     84 H84       -68.8144   29.7280  -73.8156 H         1 UNK         0.3453 
     85 H85       -70.2663   30.0407  -74.7369 H         1 UNK         0.3453 
     86 H86       -72.3930   28.8104  -74.7452 H         1 UNK         0.2984 
     87 H87       -74.5798   30.1581  -76.3123 H         1 UNK         0.0554 
     88 H88       -73.8042   31.7896  -78.0559 H         1 UNK         0.0847 
     89 H89       -72.5697   32.3834  -76.9455 H         1 UNK         0.0847 
     90 H90       -74.2725   32.5910  -76.5672 H         1 UNK         0.0847 
     91 H91       -73.2410   28.7486  -77.3189 H         1 UNK         0.3141 
     92 H92       -70.6910   28.5080  -78.7991 H         1 UNK         0.0743 
     93 H93       -69.2745   27.8995  -76.1486 H         1 UNK         0.0784 
     94 H94       -68.8499   27.2037  -77.7111 H         1 UNK         0.0784 
     95 H95       -68.6634   28.9265  -77.4380 H         1 UNK         0.0784 
     96 H96       -71.8160   26.6394  -78.4455 H         1 UNK         0.3213 
     97 H97       -72.9354   25.0251  -77.6492 H         1 UNK         0.0855 
     98 H98       -72.3655   24.2803  -74.7344 H         1 UNK         0.0814 
     99 H99       -71.2929   23.9177  -76.0803 H         1 UNK         0.0814 
    100 H100      -72.8907   23.1945  -76.0213 H         1 UNK         0.0814 
    101 H101      -74.6728   24.8956  -75.5111 H         1 UNK         0.3105 
    102 H102      -76.5830   27.6699  -75.5188 H         1 UNK         0.0547 
    103 H103      -77.4054   27.4496  -77.8127 H         1 UNK         0.0837 
    104 H104      -77.3308   25.6936  -77.7387 H         1 UNK         0.0837 
    105 H105      -78.5144   26.5614  -76.7788 H         1 UNK         0.0837 
    106 H106      -77.5078   24.9842  -75.2795 H         1 UNK         0.3020 
    107 H107      -75.9383   24.0819  -72.2905 H         1 UNK         0.1245 
    108 H108      -78.6373   23.9665  -71.7505 H         1 UNK         0.0781 
    109 H109      -78.5692   25.5966  -72.3286 H         1 UNK         0.0781 
    110 H110      -78.2145   27.0956  -68.9362 H         1 UNK         0.0836 
    111 H111      -79.2367   26.8093  -70.3162 H         1 UNK         0.0836 
    112 H112      -78.1746   22.9872  -73.6341 H         1 UNK         0.3022 
    113 H113      -76.7749   21.7063  -76.4770 H         1 UNK         0.0747 
    114 H114      -77.1386   19.3716  -75.7106 H         1 UNK         0.0793 
    115 H115      -75.6512   20.0031  -75.0273 H         1 UNK         0.0793 
    116 H116      -77.0901   19.8893  -74.0239 H         1 UNK         0.0793 
    117 H117      -79.1073   20.8352  -75.1518 H         1 UNK         0.3047 
    118 H118      -81.1759   21.7791  -76.3774 H         1 UNK         0.0822 
    119 H119      -80.8827   21.3487  -73.9583 H         1 UNK         0.0807 
    120 H120      -82.3183   22.3259  -74.1757 H         1 UNK         0.0807 
    121 H121      -80.8289   23.0719  -73.6085 H         1 UNK         0.0807 
    122 H122      -81.2739   24.6589  -75.5727 H         1 UNK         0.2946 
    123 H123      -82.5088   25.7659  -78.4914 H         1 UNK         0.1144 
    124 H124      -84.6825   24.5745  -78.3488 H         1 UNK         0.0793 
    125 H125      -84.8587   26.2191  -77.7644 H         1 UNK         0.0793 
    126 H126      -84.7735   24.8795  -76.6198 H         1 UNK         0.0793 
    127 H127      -83.0196   26.3341  -75.6128 H         1 UNK         0.2896 
@<TRIPOS>BOND
     1    1    2 1    
     2    1   67 1    
     3    1   68 1    
     4    1   69 1    
     5    2    3 2    
     6    2    4 am   BACKBONE|DICT|INTERRES
     7    4    5 1    
     8    4   70 1    
     9    5    6 1    
    10    5   65 1    
    11    5   71 1    
    12    6    7 1    
    13    6   72 1    
    14    6   73 1    
    15    7    8 1    
    16    8    9 1    
    17    8   74 1    
    18    8   75 1    
    19    9   10 ar   
    20    9   14 ar   
    21   10   11 ar   
    22   10   76 1    
    23   11   12 ar   
    24   11   48 1    
    25   12   13 ar   
    26   12   77 1    
    27   13   14 ar   
    28   13   15 1    
    29   14   78 1    
    30   15   16 1    
    31   15   79 1    
    32   15   80 1    
    33   16   17 1    
    34   17   18 1    
    35   17   81 1    
    36   17   82 1    
    37   18   19 1    
    38   18   22 1    
    39   18   83 1    
    40   19   20 am   BACKBONE|DICT|INTERRES
    41   19   21 2    
    42   20   84 1    
    43   20   85 1    
    44   22   23 am   BACKBONE|DICT|INTERRES
    45   22   86 1    
    46   23   24 2    
    47   23   25 1    
    48   25   26 1    
    49   25   27 1    
    50   25   87 1    
    51   26   88 1    
    52   26   89 1    
    53   26   90 1    
    54   27   28 am   BACKBONE|DICT|INTERRES
    55   27   91 1    
    56   28   29 2    
    57   28   30 1    
    58   30   31 1    
    59   30   32 1    
    60   30   92 1    
    61   31   93 1    
    62   31   94 1    
    63   31   95 1    
    64   32   33 am   BACKBONE|DICT|INTERRES
    65   32   96 1    
    66   33   34 2    
    67   33   35 1    
    68   35   36 1    
    69   35   37 1    
    70   35   97 1    
    71   36   98 1    
    72   36   99 1    
    73   36  100 1    
    74   37   38 am   BACKBONE|DICT|INTERRES
    75   37  101 1    
    76   38   39 2    
    77   38   40 1    
    78   40   41 1    
    79   40   42 1    
    80   40  102 1    
    81   41  103 1    
    82   41  104 1    
    83   41  105 1    
    84   42   43 am   BACKBONE|DICT|INTERRES
    85   42  106 1    
    86   43   44 2    
    87   43   45 1    
    88   45   46 1    
    89   45   49 1    
    90   45  107 1    
    91   46   47 1    
    92   46  108 1    
    93   46  109 1    
    94   47   48 1    
    95   48  110 1    
    96   48  111 1    
    97   49   50 am   BACKBONE|DICT|INTERRES
    98   49  112 1    
    99   50   51 2    
   100   50   52 1    
   101   52   53 1    
   102   52   54 1    
   103   52  113 1    
   104   53  114 1    
   105   53  115 1    
   106   53  116 1    
   107   54   55 am   BACKBONE|DICT|INTERRES
   108   54  117 1    
   109   55   56 2    
   110   55   57 1    
   111   57   58 1    
   112   57   59 1    
   113   57  118 1    
   114   58  119 1    
   115   58  120 1    
   116   58  121 1    
   117   59   60 am   BACKBONE|DICT|INTERRES
   118   59  122 1    
   119   60   61 2    
   120   60   62 1    
   121   62   63 1    
   122   62   64 1    
   123   62  123 1    
   124   63  124 1    
   125   63  125 1    
   126   63  126 1    
   127   64   65 am   BACKBONE|DICT|INTERRES
   128   64  127 1    
   129   65   66 2    
@<TRIPOS>SUBSTRUCTURE
     1 UNK         1 GROUP             0       ****    0 ROOT    
