@<TRIPOS>MOLECULE
3R135
127   129    1
SMALL
USER_CHARGES


@<TRIPOS>ATOM
      1 CA        -84.5495   28.0452  -72.9617 C.3       0 UNK        -0.1998 
      2 C         -83.2541   27.9839  -72.1573 C.2       0 UNK         0.4909 
      3 O         -83.3039   27.7929  -70.9440 O.2       0 UNK        -0.5240 
      4 N         -82.0735   28.1428  -72.7716 N.am      1 UNK        -0.4739 
      5 CA        -81.8367   28.3373  -74.2086 C.3       1 UNK         0.0864 
      6 C6        -80.4280   28.9235  -74.4740 C.3       11 UNK        -0.0881 
      7 S7        -80.2271   30.6406  -73.8845 S.3       11 UNK        -0.2682 
      8 C8        -79.6588   30.4613  -72.1588 C.3       11 UNK         0.0289 
      9 C9        -78.4867   29.5015  -71.9986 C.ar      11 UNK        -0.0687 
     10 C10       -78.6339   28.3431  -71.2283 C.ar      11 UNK        -0.0823 
     11 C11       -77.5699   27.4514  -71.0661 C.ar      11 UNK        -0.0830 
     12 C12       -76.3450   27.7383  -71.6773 C.ar      11 UNK        -0.1021 
     13 C13       -76.1847   28.8882  -72.4541 C.ar      11 UNK        -0.0753 
     14 C14       -77.2566   29.7719  -72.6071 C.ar      11 UNK        -0.0933 
     15 C15       -74.8556   29.1468  -73.1422 C.3       11 UNK         0.0166 
     16 S16       -73.5842   29.6878  -71.9551 S.3       11 UNK        -0.2615 
     17 C17       -73.3629   31.4438  -72.4160 C.3       11 UNK        -0.0865 
     18 CA        -72.1480   31.6772  -73.3555 C.3       10 UNK         0.0862 
     19 C         -70.7881   31.5931  -72.5973 C.2       10 UNK         0.5551 
     20 N         -69.8823   30.6814  -72.9342 N.am      10 UNK        -0.7319 
     21 O         -70.5462   32.3866  -71.6909 O.2       10 UNK        -0.5018 
     22 N         -72.2407   30.8296  -74.5512 N.am      10 UNK        -0.4509 
     23 C         -71.6172   31.0398  -75.7141 C.2       10 UNK         0.4899 
     24 O         -70.9691   32.0556  -75.9704 O.2       10 UNK        -0.4839 
     25 CA        -71.7475   29.9154  -76.7614 C.3       9 UNK         0.0222 
     26 CB        -70.5973   29.9276  -77.7902 C.3       9 UNK        -0.1966 
     27 N         -71.9048   28.5721  -76.1805 N.am      9 UNK        -0.4218 
     28 C         -71.0440   27.9264  -75.3731 C.2       9 UNK         0.5020 
     29 O         -70.0163   28.4414  -74.9296 O.2       9 UNK        -0.5274 
     30 CA        -71.3721   26.4721  -74.9687 C.3       8 UNK         0.0270 
     31 CB        -71.7061   26.3858  -73.4702 C.3       8 UNK        -0.1976 
     32 N         -72.4603   25.8664  -75.7435 N.am      8 UNK        -0.4313 
     33 C         -72.3737   25.5284  -77.0404 C.2       8 UNK         0.5041 
     34 O         -71.3226   25.5728  -77.6807 O.2       8 UNK        -0.5577 
     35 CA        -73.6662   25.1054  -77.7706 C.3       7 UNK         0.0284 
     36 CB        -73.7030   23.5781  -77.9431 C.3       7 UNK        -0.1958 
     37 N         -74.9145   25.5404  -77.1352 N.am      7 UNK        -0.4454 
     38 C         -75.2457   26.7936  -76.7904 C.2       7 UNK         0.5089 
     39 O         -74.5515   27.7805  -77.0358 O.2       7 UNK        -0.5125 
     40 CA        -76.5327   26.9667  -75.9655 C.3       6 UNK         0.0408 
     41 CB        -77.7144   27.2790  -76.8938 C.3       6 UNK        -0.1791 
     42 N         -76.8671   25.8098  -75.1259 N.am      6 UNK        -0.4762 
     43 C         -76.0789   25.2416  -74.1977 C.2       6 UNK         0.5007 
     44 O         -74.9267   25.6070  -73.9602 O.2       6 UNK        -0.5032 
     45 CA        -76.6541   24.0115  -73.4723 C.3       5 UNK         0.0783 
     46 C46       -77.6812   24.3898  -72.3740 C.3       11 UNK        -0.0857 
     47 S47       -76.8664   24.7286  -70.7789 S.3       11 UNK        -0.2512 
     48 C48       -77.7598   26.2100  -70.1967 C.3       11 UNK         0.0225 
     49 N         -77.2309   23.0906  -74.4511 N.am      5 UNK        -0.4615 
     50 C         -76.5453   22.1328  -75.0883 C.2       4 UNK         0.5053 
     51 O         -75.3636   21.8724  -74.8638 O.2       4 UNK        -0.5105 
     52 CA        -77.2973   21.3226  -76.1601 C.3       4 UNK         0.0263 
     53 CB        -77.8238   20.0068  -75.5649 C.3       4 UNK        -0.1981 
     54 N         -78.4095   22.0514  -76.7760 N.am      4 UNK        -0.4224 
     55 C         -78.2706   23.1282  -77.5614 C.2       3 UNK         0.4895 
     56 O         -77.1849   23.6218  -77.8667 O.2       3 UNK        -0.5091 
     57 CA        -79.5683   23.7933  -78.0511 C.3       3 UNK         0.0250 
     58 CB        -80.0910   23.0856  -79.3115 C.3       3 UNK        -0.1996 
     59 N         -80.6413   23.8690  -77.0489 N.am      3 UNK        -0.4254 
     60 C         -80.5291   24.4222  -75.8329 C.2       2 UNK         0.5004 
     61 O         -79.4649   24.8085  -75.3452 O.2       2 UNK        -0.5226 
     62 CA        -81.8129   24.5576  -75.0003 C.3       2 UNK         0.0269 
     63 CB        -81.8672   23.4644  -73.9213 C.3       2 UNK        -0.1926 
     64 N         -81.8610   25.8726  -74.3562 N.am      2 UNK        -0.4687 
     65 C         -82.0110   27.0322  -75.0144 C.2       1 UNK         0.5165 
     66 O         -82.2757   27.1006  -76.2152 O.2       1 UNK        -0.5079 
     67 H67       -84.6315   28.9866  -73.5038 H         1 UNK         0.0900 
     68 H68       -85.4116   27.9736  -72.2988 H         1 UNK         0.0900 
     69 H69       -84.6103   27.2203  -73.6705 H         1 UNK         0.0900 
     70 H70       -81.2387   28.1125  -72.2075 H         1 UNK         0.2959 
     71 H71       -82.5694   29.0483  -74.5950 H         1 UNK         0.1079 
     72 H72       -79.6481   28.2796  -74.0641 H         1 UNK         0.0837 
     73 H73       -80.2379   28.9618  -75.5484 H         1 UNK         0.0837 
     74 H74       -79.3609   31.4433  -71.7888 H         1 UNK         0.0685 
     75 H75       -80.5029   30.1536  -71.5405 H         1 UNK         0.0685 
     76 H76       -79.5773   28.1386  -70.7410 H         1 UNK         0.1434 
     77 H77       -75.5070   27.0653  -71.5570 H         1 UNK         0.1329 
     78 H78       -77.1410   30.6646  -73.2064 H         1 UNK         0.1335 
     79 H79       -74.5195   28.2278  -73.6216 H         1 UNK         0.0680 
     80 H80       -74.9739   29.8720  -73.9484 H         1 UNK         0.0680 
     81 H81       -73.2633   32.0325  -71.5020 H         1 UNK         0.1032 
     82 H82       -74.2733   31.8135  -72.8897 H         1 UNK         0.1032 
     83 H83       -72.2150   32.7114  -73.6986 H         1 UNK         0.0461 
     84 H84       -69.0088   30.6507  -72.4337 H         1 UNK         0.3453 
     85 H85       -70.0567   30.0147  -73.6786 H         1 UNK         0.3453 
     86 H86       -72.7158   29.9500  -74.4192 H         1 UNK         0.2984 
     87 H87       -72.6735   30.1158  -77.3020 H         1 UNK         0.0554 
     88 H88       -70.7190   29.1365  -78.5302 H         1 UNK         0.0847 
     89 H89       -69.6265   29.7929  -77.3121 H         1 UNK         0.0847 
     90 H90       -70.5643   30.8735  -78.3323 H         1 UNK         0.0847 
     91 H91       -72.7559   28.0892  -76.4612 H         1 UNK         0.3141 
     92 H92       -70.4690   25.8841  -75.1447 H         1 UNK         0.0743 
     93 H93       -72.6027   26.9518  -73.2207 H         1 UNK         0.0784 
     94 H94       -71.8672   25.3537  -73.1584 H         1 UNK         0.0784 
     95 H95       -70.8922   26.7842  -72.8628 H         1 UNK         0.0784 
     96 H96       -73.3563   25.7767  -75.2720 H         1 UNK         0.3213 
     97 H97       -73.6355   25.5632  -78.7613 H         1 UNK         0.0855 
     98 H98       -73.7895   23.0672  -76.9831 H         1 UNK         0.0814 
     99 H99       -72.7948   23.2150  -78.4263 H         1 UNK         0.0814 
    100 H100      -74.5431   23.2681  -78.5649 H         1 UNK         0.0814 
    101 H101      -75.5974   24.8148  -76.9487 H         1 UNK         0.3105 
    102 H102      -76.3902   27.8169  -75.2970 H         1 UNK         0.0547 
    103 H103      -77.5540   28.2175  -77.4260 H         1 UNK         0.0837 
    104 H104      -77.8497   26.4991  -77.6426 H         1 UNK         0.0837 
    105 H105      -78.6465   27.3725  -76.3386 H         1 UNK         0.0837 
    106 H106      -77.8062   25.4305  -75.2463 H         1 UNK         0.3020 
    107 H107      -75.8132   23.5055  -72.9911 H         1 UNK         0.1245 
    108 H108      -78.3662   23.5589  -72.1974 H         1 UNK         0.0781 
    109 H109      -78.3114   25.2280  -72.6789 H         1 UNK         0.0781 
    110 H110      -77.4202   26.4437  -69.1870 H         1 UNK         0.0836 
    111 H111      -78.8187   25.9592  -70.1144 H         1 UNK         0.0836 
    112 H112      -78.1782   23.2948  -74.7459 H         1 UNK         0.3022 
    113 H113      -76.5796   21.0801  -76.9470 H         1 UNK         0.0747 
    114 H114      -78.2859   19.3816  -76.3291 H         1 UNK         0.0793 
    115 H115      -77.0126   19.4269  -75.1222 H         1 UNK         0.0793 
    116 H116      -78.5624   20.1840  -74.7819 H         1 UNK         0.0793 
    117 H117      -79.3424   21.7222  -76.5742 H         1 UNK         0.3047 
    118 H118      -79.3194   24.8194  -78.3257 H         1 UNK         0.0822 
    119 H119      -80.9357   23.6203  -79.7464 H         1 UNK         0.0807 
    120 H120      -80.4119   22.0648  -79.1001 H         1 UNK         0.0807 
    121 H121      -79.3169   23.0315  -80.0786 H         1 UNK         0.0807 
    122 H122      -81.5538   23.5622  -77.3547 H         1 UNK         0.2946 
    123 H123      -82.6824   24.4584  -75.6541 H         1 UNK         0.1144 
    124 H124      -81.0165   23.5247  -73.2408 H         1 UNK         0.0793 
    125 H125      -81.8556   22.4703  -74.3704 H         1 UNK         0.0793 
    126 H126      -82.7779   23.5391  -73.3268 H         1 UNK         0.0793 
    127 H127      -81.6277   25.9076  -73.3749 H         1 UNK         0.2896 
@<TRIPOS>BOND
     1    1    2 1    
     2    1   67 1    
     3    1   68 1    
     4    1   69 1    
     5    2    3 2    
     6    2    4 am   BACKBONE|DICT|INTERRES
     7    4    5 1    
     8    4   70 1    
     9    5    6 1    
    10    5   65 1    
    11    5   71 1    
    12    6    7 1    
    13    6   72 1    
    14    6   73 1    
    15    7    8 1    
    16    8    9 1    
    17    8   74 1    
    18    8   75 1    
    19    9   10 ar   
    20    9   14 ar   
    21   10   11 ar   
    22   10   76 1    
    23   11   12 ar   
    24   11   48 1    
    25   12   13 ar   
    26   12   77 1    
    27   13   14 ar   
    28   13   15 1    
    29   14   78 1    
    30   15   16 1    
    31   15   79 1    
    32   15   80 1    
    33   16   17 1    
    34   17   18 1    
    35   17   81 1    
    36   17   82 1    
    37   18   19 1    
    38   18   22 1    
    39   18   83 1    
    40   19   20 am   BACKBONE|DICT|INTERRES
    41   19   21 2    
    42   20   84 1    
    43   20   85 1    
    44   22   23 am   BACKBONE|DICT|INTERRES
    45   22   86 1    
    46   23   24 2    
    47   23   25 1    
    48   25   26 1    
    49   25   27 1    
    50   25   87 1    
    51   26   88 1    
    52   26   89 1    
    53   26   90 1    
    54   27   28 am   BACKBONE|DICT|INTERRES
    55   27   91 1    
    56   28   29 2    
    57   28   30 1    
    58   30   31 1    
    59   30   32 1    
    60   30   92 1    
    61   31   93 1    
    62   31   94 1    
    63   31   95 1    
    64   32   33 am   BACKBONE|DICT|INTERRES
    65   32   96 1    
    66   33   34 2    
    67   33   35 1    
    68   35   36 1    
    69   35   37 1    
    70   35   97 1    
    71   36   98 1    
    72   36   99 1    
    73   36  100 1    
    74   37   38 am   BACKBONE|DICT|INTERRES
    75   37  101 1    
    76   38   39 2    
    77   38   40 1    
    78   40   41 1    
    79   40   42 1    
    80   40  102 1    
    81   41  103 1    
    82   41  104 1    
    83   41  105 1    
    84   42   43 am   BACKBONE|DICT|INTERRES
    85   42  106 1    
    86   43   44 2    
    87   43   45 1    
    88   45   46 1    
    89   45   49 1    
    90   45  107 1    
    91   46   47 1    
    92   46  108 1    
    93   46  109 1    
    94   47   48 1    
    95   48  110 1    
    96   48  111 1    
    97   49   50 am   BACKBONE|DICT|INTERRES
    98   49  112 1    
    99   50   51 2    
   100   50   52 1    
   101   52   53 1    
   102   52   54 1    
   103   52  113 1    
   104   53  114 1    
   105   53  115 1    
   106   53  116 1    
   107   54   55 am   BACKBONE|DICT|INTERRES
   108   54  117 1    
   109   55   56 2    
   110   55   57 1    
   111   57   58 1    
   112   57   59 1    
   113   57  118 1    
   114   58  119 1    
   115   58  120 1    
   116   58  121 1    
   117   59   60 am   BACKBONE|DICT|INTERRES
   118   59  122 1    
   119   60   61 2    
   120   60   62 1    
   121   62   63 1    
   122   62   64 1    
   123   62  123 1    
   124   63  124 1    
   125   63  125 1    
   126   63  126 1    
   127   64   65 am   BACKBONE|DICT|INTERRES
   128   64  127 1    
   129   65   66 2    
@<TRIPOS>SUBSTRUCTURE
     1 UNK         1 GROUP             0       ****    0 ROOT    
