@<TRIPOS>MOLECULE
3R135
127   129    1
SMALL
USER_CHARGES


@<TRIPOS>ATOM
      1 CA        -80.4032   22.8064  -72.1050 C.3       0 UNK        -0.1998 
      2 C         -81.3138   24.0235  -72.1619 C.2       0 UNK         0.4909 
      3 O         -82.3727   24.0277  -71.5339 O.2       0 UNK        -0.5240 
      4 N         -80.9134   25.0451  -72.9275 N.am      1 UNK        -0.4739 
      5 CA        -81.6932   26.2653  -73.1809 C.3       1 UNK         0.0864 
      6 C6        -80.8160   27.5418  -73.0726 C.3       11 UNK        -0.0881 
      7 S7        -80.1814   27.7943  -71.3839 S.3       11 UNK        -0.2682 
      8 C8        -79.1879   29.3121  -71.5827 C.3       11 UNK         0.0289 
      9 C9        -77.7707   29.0308  -72.0681 C.ar      11 UNK        -0.0687 
     10 C10       -76.9393   28.1758  -71.3368 C.ar      11 UNK        -0.0823 
     11 C11       -75.6325   27.9208  -71.7595 C.ar      11 UNK        -0.0830 
     12 C12       -75.1544   28.5331  -72.9176 C.ar      11 UNK        -0.1021 
     13 C13       -75.9609   29.4099  -73.6452 C.ar      11 UNK        -0.0753 
     14 C14       -77.2712   29.6550  -73.2177 C.ar      11 UNK        -0.0933 
     15 C15       -75.4117   30.0648  -74.9046 C.3       11 UNK         0.0166 
     16 S16       -75.1470   31.8572  -74.7267 S.3       11 UNK        -0.2615 
     17 C17       -73.9883   31.9983  -73.3203 C.3       11 UNK        -0.0865 
     18 CA        -72.4958   32.0921  -73.7673 C.3       10 UNK         0.0862 
     19 C         -71.6061   32.9257  -72.7891 C.2       10 UNK         0.5551 
     20 N         -70.3173   32.6337  -72.6588 N.am      10 UNK        -0.7319 
     21 O         -72.0734   33.8774  -72.1677 O.2       10 UNK        -0.5018 
     22 N         -71.9309   30.7795  -74.1393 N.am      10 UNK        -0.4509 
     23 C         -71.7027   29.7507  -73.3103 C.2       10 UNK         0.4899 
     24 O         -71.9792   29.7659  -72.1102 O.2       10 UNK        -0.4839 
     25 CA        -71.0652   28.4908  -73.9307 C.3       9 UNK         0.0222 
     26 CB        -70.9013   27.3454  -72.9137 C.3       9 UNK        -0.1966 
     27 N         -71.8270   27.9883  -75.0744 N.am      9 UNK        -0.4218 
     28 C         -71.8016   28.4712  -76.3203 C.2       9 UNK         0.5020 
     29 O         -71.1208   29.4450  -76.6493 O.2       9 UNK        -0.5274 
     30 CA        -72.6974   27.7608  -77.3584 C.3       8 UNK         0.0270 
     31 CB        -72.4766   28.2893  -78.7883 C.3       8 UNK        -0.1976 
     32 N         -72.5625   26.2970  -77.3676 N.am      8 UNK        -0.4313 
     33 C         -73.0407   25.4614  -76.4379 C.2       8 UNK         0.5041 
     34 O         -73.5682   25.8353  -75.3864 O.2       8 UNK        -0.5577 
     35 CA        -72.9177   23.9613  -76.7105 C.3       7 UNK         0.0284 
     36 CB        -71.6787   23.3702  -76.0170 C.3       7 UNK        -0.1958 
     37 N         -74.1310   23.3541  -76.1816 N.am      7 UNK        -0.4454 
     38 C         -74.7100   22.2204  -76.5865 C.2       7 UNK         0.5089 
     39 O         -74.2184   21.4768  -77.4366 O.2       7 UNK        -0.5125 
     40 CA        -76.0920   21.8721  -75.9889 C.3       6 UNK         0.0408 
     41 CB        -76.1373   20.4311  -75.4395 C.3       6 UNK        -0.1791 
     42 N         -76.5996   22.8457  -75.0073 N.am      6 UNK        -0.4762 
     43 C         -76.1422   23.1021  -73.7712 C.2       6 UNK         0.5007 
     44 O         -75.2327   22.4626  -73.2426 O.2       6 UNK        -0.5032 
     45 CA        -76.7911   24.2982  -73.0306 C.3       5 UNK         0.0783 
     46 C46       -76.1185   24.6337  -71.6719 C.3       11 UNK        -0.0857 
     47 S47       -74.4674   25.4082  -71.8118 S.3       11 UNK        -0.2512 
     48 C48       -74.7242   26.9974  -70.9640 C.3       11 UNK         0.0225 
     49 N         -76.9107   25.4788  -73.9006 N.am      5 UNK        -0.4615 
     50 C         -77.8828   25.6829  -74.7973 C.2       4 UNK         0.5053 
     51 O         -78.8270   24.9028  -74.9475 O.2       4 UNK        -0.5105 
     52 CA        -77.7756   26.9346  -75.6797 C.3       4 UNK         0.0263 
     53 CB        -76.4533   26.9745  -76.4641 C.3       4 UNK        -0.1981 
     54 N         -78.9028   26.9892  -76.6053 N.am      4 UNK        -0.4224 
     55 C         -79.3720   28.0919  -77.2016 C.2       3 UNK         0.4895 
     56 O         -78.8727   29.2076  -77.0532 O.2       3 UNK        -0.5091 
     57 CA        -80.6234   27.9562  -78.0917 C.3       3 UNK         0.0250 
     58 CB        -80.2435   27.7105  -79.5655 C.3       3 UNK        -0.1996 
     59 N         -81.6025   26.9785  -77.5948 N.am      3 UNK        -0.4254 
     60 C         -81.5152   25.6418  -77.5602 C.2       2 UNK         0.5004 
     61 O         -80.5894   24.9950  -78.0514 O.2       2 UNK        -0.5226 
     62 CA        -82.5741   24.9325  -76.7018 C.3       2 UNK         0.0269 
     63 CB        -82.6906   23.4321  -77.0271 C.3       2 UNK        -0.1926 
     64 N         -82.2007   25.0866  -75.2956 N.am      2 UNK        -0.4687 
     65 C         -82.3865   26.1931  -74.5591 C.2       1 UNK         0.5165 
     66 O         -83.0500   27.1531  -74.9556 O.2       1 UNK        -0.5079 
     67 H67       -79.8308   22.6929  -73.0255 H         1 UNK         0.0900 
     68 H68       -80.9913   21.8992  -71.9677 H         1 UNK         0.0900 
     69 H69       -79.7104   22.8923  -71.2685 H         1 UNK         0.0900 
     70 H70       -80.0531   24.9688  -73.4626 H         1 UNK         0.2959 
     71 H71       -82.4981   26.3532  -72.4478 H         1 UNK         0.1079 
     72 H72       -81.3918   28.4305  -73.3391 H         1 UNK         0.0837 
     73 H73       -79.9773   27.5021  -73.7672 H         1 UNK         0.0837 
     74 H74       -79.7049   30.0019  -72.2516 H         1 UNK         0.0685 
     75 H75       -79.1261   29.8136  -70.6161 H         1 UNK         0.0685 
     76 H76       -77.3160   27.7072  -70.4379 H         1 UNK         0.1434 
     77 H77       -74.1476   28.3236  -73.2472 H         1 UNK         0.1329 
     78 H78       -77.8979   30.3297  -73.7849 H         1 UNK         0.1335 
     79 H79       -76.1107   29.8976  -75.7253 H         1 UNK         0.0680 
     80 H80       -74.4723   29.6002  -75.2050 H         1 UNK         0.0680 
     81 H81       -74.1429   31.1907  -72.6052 H         1 UNK         0.1032 
     82 H82       -74.2963   32.9010  -72.7909 H         1 UNK         0.1032 
     83 H83       -72.4701   32.6800  -74.6855 H         1 UNK         0.0461 
     84 H84       -69.7461   33.1838  -72.0368 H         1 UNK         0.3453 
     85 H85       -69.9131   31.8690  -73.1745 H         1 UNK         0.3453 
     86 H86       -71.6581   30.6668  -75.1103 H         1 UNK         0.2984 
     87 H87       -70.0676   28.7730  -74.2733 H         1 UNK         0.0554 
     88 H88       -70.3973   26.4878  -73.3597 H         1 UNK         0.0847 
     89 H89       -71.8645   27.0042  -72.5330 H         1 UNK         0.0847 
     90 H90       -70.3035   27.6610  -72.0577 H         1 UNK         0.0847 
     91 H91       -72.4450   27.1938  -74.9095 H         1 UNK         0.3141 
     92 H92       -73.7264   27.9989  -77.0844 H         1 UNK         0.0743 
     93 H93       -71.4604   28.0991  -79.1359 H         1 UNK         0.0784 
     94 H94       -73.1669   27.8272  -79.4943 H         1 UNK         0.0784 
     95 H95       -72.6429   29.3664  -78.8391 H         1 UNK         0.0784 
     96 H96       -72.1002   25.9023  -78.1746 H         1 UNK         0.3213 
     97 H97       -72.8627   23.7896  -77.7878 H         1 UNK         0.0855 
     98 H98       -71.7089   23.5301  -74.9381 H         1 UNK         0.0814 
     99 H99       -70.7635   23.8304  -76.3913 H         1 UNK         0.0814 
    100 H100      -71.5990   22.2975  -76.1936 H         1 UNK         0.0814 
    101 H101      -74.5946   23.9237  -75.4841 H         1 UNK         0.3105 
    102 H102      -76.7913   21.9187  -76.8249 H         1 UNK         0.0547 
    103 H103      -75.9269   19.7078  -76.2282 H         1 UNK         0.0837 
    104 H104      -75.3994   20.2693  -74.6535 H         1 UNK         0.0837 
    105 H105      -77.1200   20.1897  -75.0348 H         1 UNK         0.0837 
    106 H106      -77.3675   23.4237  -75.3324 H         1 UNK         0.3020 
    107 H107      -77.7983   23.9607  -72.7848 H         1 UNK         0.1245 
    108 H108      -76.0243   23.7368  -71.0568 H         1 UNK         0.0781 
    109 H109      -76.7772   25.2927  -71.1058 H         1 UNK         0.0781 
    110 H110      -73.7571   27.4829  -70.8233 H         1 UNK         0.0836 
    111 H111      -75.1227   26.8183  -69.9642 H         1 UNK         0.0836 
    112 H112      -76.1519   26.1440  -73.8278 H         1 UNK         0.3022 
    113 H113      -77.8372   27.8011  -75.0249 H         1 UNK         0.0747 
    114 H114      -75.6249   27.1681  -75.7866 H         1 UNK         0.0793 
    115 H115      -76.2556   26.0353  -76.9823 H         1 UNK         0.0793 
    116 H116      -76.4417   27.7735  -77.2051 H         1 UNK         0.0793 
    117 H117      -79.3685   26.1020  -76.7748 H         1 UNK         0.3047 
    118 H118      -81.1346   28.9194  -78.0475 H         1 UNK         0.0822 
    119 H119      -81.1283   27.6431  -80.1984 H         1 UNK         0.0807 
    120 H120      -79.6659   26.7949  -79.6948 H         1 UNK         0.0807 
    121 H121      -79.6329   28.5297  -79.9474 H         1 UNK         0.0807 
    122 H122      -82.3655   27.3864  -77.0662 H         1 UNK         0.2946 
    123 H123      -83.5447   25.4002  -76.8846 H         1 UNK         0.1144 
    124 H124      -83.4725   22.9586  -76.4332 H         1 UNK         0.0793 
    125 H125      -81.7577   22.8995  -76.8366 H         1 UNK         0.0793 
    126 H126      -82.9442   23.2807  -78.0771 H         1 UNK         0.0793 
    127 H127      -81.6131   24.3627  -74.9077 H         1 UNK         0.2896 
@<TRIPOS>BOND
     1    1    2 1    
     2    1   67 1    
     3    1   68 1    
     4    1   69 1    
     5    2    3 2    
     6    2    4 am   BACKBONE|DICT|INTERRES
     7    4    5 1    
     8    4   70 1    
     9    5    6 1    
    10    5   65 1    
    11    5   71 1    
    12    6    7 1    
    13    6   72 1    
    14    6   73 1    
    15    7    8 1    
    16    8    9 1    
    17    8   74 1    
    18    8   75 1    
    19    9   10 ar   
    20    9   14 ar   
    21   10   11 ar   
    22   10   76 1    
    23   11   12 ar   
    24   11   48 1    
    25   12   13 ar   
    26   12   77 1    
    27   13   14 ar   
    28   13   15 1    
    29   14   78 1    
    30   15   16 1    
    31   15   79 1    
    32   15   80 1    
    33   16   17 1    
    34   17   18 1    
    35   17   81 1    
    36   17   82 1    
    37   18   19 1    
    38   18   22 1    
    39   18   83 1    
    40   19   20 am   BACKBONE|DICT|INTERRES
    41   19   21 2    
    42   20   84 1    
    43   20   85 1    
    44   22   23 am   BACKBONE|DICT|INTERRES
    45   22   86 1    
    46   23   24 2    
    47   23   25 1    
    48   25   26 1    
    49   25   27 1    
    50   25   87 1    
    51   26   88 1    
    52   26   89 1    
    53   26   90 1    
    54   27   28 am   BACKBONE|DICT|INTERRES
    55   27   91 1    
    56   28   29 2    
    57   28   30 1    
    58   30   31 1    
    59   30   32 1    
    60   30   92 1    
    61   31   93 1    
    62   31   94 1    
    63   31   95 1    
    64   32   33 am   BACKBONE|DICT|INTERRES
    65   32   96 1    
    66   33   34 2    
    67   33   35 1    
    68   35   36 1    
    69   35   37 1    
    70   35   97 1    
    71   36   98 1    
    72   36   99 1    
    73   36  100 1    
    74   37   38 am   BACKBONE|DICT|INTERRES
    75   37  101 1    
    76   38   39 2    
    77   38   40 1    
    78   40   41 1    
    79   40   42 1    
    80   40  102 1    
    81   41  103 1    
    82   41  104 1    
    83   41  105 1    
    84   42   43 am   BACKBONE|DICT|INTERRES
    85   42  106 1    
    86   43   44 2    
    87   43   45 1    
    88   45   46 1    
    89   45   49 1    
    90   45  107 1    
    91   46   47 1    
    92   46  108 1    
    93   46  109 1    
    94   47   48 1    
    95   48  110 1    
    96   48  111 1    
    97   49   50 am   BACKBONE|DICT|INTERRES
    98   49  112 1    
    99   50   51 2    
   100   50   52 1    
   101   52   53 1    
   102   52   54 1    
   103   52  113 1    
   104   53  114 1    
   105   53  115 1    
   106   53  116 1    
   107   54   55 am   BACKBONE|DICT|INTERRES
   108   54  117 1    
   109   55   56 2    
   110   55   57 1    
   111   57   58 1    
   112   57   59 1    
   113   57  118 1    
   114   58  119 1    
   115   58  120 1    
   116   58  121 1    
   117   59   60 am   BACKBONE|DICT|INTERRES
   118   59  122 1    
   119   60   61 2    
   120   60   62 1    
   121   62   63 1    
   122   62   64 1    
   123   62  123 1    
   124   63  124 1    
   125   63  125 1    
   126   63  126 1    
   127   64   65 am   BACKBONE|DICT|INTERRES
   128   64  127 1    
   129   65   66 2    
@<TRIPOS>SUBSTRUCTURE
     1 UNK         1 GROUP             0       ****    0 ROOT    
