@<TRIPOS>MOLECULE
3R135
127   129    1
SMALL
USER_CHARGES


@<TRIPOS>ATOM
      1 CA        -84.5881   30.6525  -76.1167 C.3       0 UNK        -0.1998 
      2 C         -83.3615   29.7901  -75.8583 C.2       0 UNK         0.4909 
      3 O         -82.6622   29.4213  -76.8029 O.2       0 UNK        -0.5240 
      4 N         -83.0904   29.4745  -74.5859 N.am      1 UNK        -0.4739 
      5 CA        -81.9795   28.6183  -74.1524 C.3       1 UNK         0.0864 
      6 C6        -81.7100   28.7467  -72.6327 C.3       11 UNK        -0.0881 
      7 S7        -81.3139   30.4597  -72.1452 S.3       11 UNK        -0.2682 
      8 C8        -80.7664   30.2306  -70.4246 C.3       11 UNK         0.0289 
      9 C9        -79.3829   29.6019  -70.3474 C.ar      11 UNK        -0.0687 
     10 C10       -79.2337   28.2590  -69.9872 C.ar      11 UNK        -0.0823 
     11 C11       -77.9623   27.6822  -69.9199 C.ar      11 UNK        -0.0830 
     12 C12       -76.8350   28.4682  -70.1810 C.ar      11 UNK        -0.1021 
     13 C13       -76.9716   29.8038  -70.5697 C.ar      11 UNK        -0.0753 
     14 C14       -78.2495   30.3666  -70.6422 C.ar      11 UNK        -0.0933 
     15 C15       -75.7470   30.6396  -70.9205 C.3       11 UNK         0.0166 
     16 S16       -75.2124   30.3729  -72.6456 S.3       11 UNK        -0.2615 
     17 C17       -74.0137   29.0084  -72.4553 C.3       11 UNK        -0.0865 
     18 CA        -72.5410   29.5099  -72.5291 C.3       10 UNK         0.0862 
     19 C         -71.5263   28.5358  -71.8480 C.2       10 UNK         0.5551 
     20 N         -70.2859   28.4431  -72.3123 N.am      10 UNK        -0.7319 
     21 O         -71.8485   27.8889  -70.8543 O.2       10 UNK        -0.5018 
     22 N         -72.1609   29.9656  -73.8827 N.am      10 UNK        -0.4509 
     23 C         -72.0067   29.1827  -74.9595 C.2       10 UNK         0.4899 
     24 O         -72.2038   27.9652  -74.9602 O.2       10 UNK        -0.4839 
     25 CA        -71.5274   29.8713  -76.2471 C.3       9 UNK         0.0222 
     26 CB        -70.1440   30.5280  -76.0677 C.3       9 UNK        -0.1966 
     27 N         -71.4615   28.8636  -77.3000 N.am      9 UNK        -0.4218 
     28 C         -71.5122   29.0569  -78.6203 C.2       9 UNK         0.5020 
     29 O         -71.5673   30.1718  -79.1414 O.2       9 UNK        -0.5274 
     30 CA        -71.5427   27.8071  -79.5260 C.3       8 UNK         0.0270 
     31 CB        -70.1637   27.5402  -80.1619 C.3       8 UNK        -0.1976 
     32 N         -72.0965   26.6023  -78.8842 N.am      8 UNK        -0.4313 
     33 C         -71.5774   25.8404  -77.9103 C.2       8 UNK         0.5041 
     34 O         -70.4584   26.0121  -77.4259 O.2       8 UNK        -0.5577 
     35 CA        -72.5233   24.7827  -77.3110 C.3       7 UNK         0.0284 
     36 CB        -71.7996   23.7979  -76.3749 C.3       7 UNK        -0.1958 
     37 N         -73.5941   25.4426  -76.5626 N.am      7 UNK        -0.4454 
     38 C         -74.6519   26.0580  -77.1004 C.2       7 UNK         0.5089 
     39 O         -74.8966   26.0470  -78.3094 O.2       7 UNK        -0.5125 
     40 CA        -75.5504   26.8455  -76.1316 C.3       6 UNK         0.0408 
     41 CB        -76.6708   27.6120  -76.8576 C.3       6 UNK        -0.1791 
     42 N         -76.1550   25.9938  -75.1098 N.am      6 UNK        -0.4762 
     43 C         -75.5514   25.5336  -74.0057 C.2       6 UNK         0.5007 
     44 O         -74.3531   25.6764  -73.7644 O.2       6 UNK        -0.5032 
     45 CA        -76.4549   24.8084  -72.9961 C.3       5 UNK         0.0783 
     46 C46       -77.5022   25.7930  -72.4226 C.3       11 UNK        -0.0857 
     47 S47       -78.4039   25.1382  -70.9776 S.3       11 UNK        -0.2512 
     48 C48       -77.8019   26.1974  -69.6144 C.3       11 UNK         0.0225 
     49 N         -77.0705   23.6518  -73.6431 N.am      5 UNK        -0.4615 
     50 C         -76.4806   22.4576  -73.7825 C.2       4 UNK         0.5053 
     51 O         -75.3918   22.1685  -73.2862 O.2       4 UNK        -0.5105 
     52 CA        -77.2276   21.4024  -74.6187 C.3       4 UNK         0.0263 
     53 CB        -78.0802   20.5035  -73.7085 C.3       4 UNK        -0.1981 
     54 N         -78.0831   21.9933  -75.6507 N.am      4 UNK        -0.4224 
     55 C         -77.6358   22.6257  -76.7460 C.2       3 UNK         0.4895 
     56 O         -76.4484   22.6940  -77.0621 O.2       3 UNK        -0.5091 
     57 CA        -78.6927   23.3225  -77.6235 C.3       3 UNK         0.0250 
     58 CB        -79.1256   22.4039  -78.7775 C.3       3 UNK        -0.1996 
     59 N         -79.8798   23.7629  -76.8775 N.am      3 UNK        -0.4254 
     60 C         -79.8641   24.7107  -75.9313 C.2       2 UNK         0.5004 
     61 O         -78.8451   25.3086  -75.5779 O.2       2 UNK        -0.5226 
     62 CA        -81.1817   25.0021  -75.2116 C.3       2 UNK         0.0269 
     63 CB        -81.3441   24.0789  -73.9893 C.3       2 UNK        -0.1926 
     64 N         -81.1608   26.3979  -74.7848 N.am      2 UNK        -0.4687 
     65 C         -82.2391   27.1454  -74.5324 C.2       1 UNK         0.5165 
     66 O         -83.3937   26.7096  -74.5663 O.2       1 UNK        -0.5079 
     67 H67       -84.2993   31.5748  -76.6198 H         1 UNK         0.0900 
     68 H68       -85.1022   30.9171  -75.1928 H         1 UNK         0.0900 
     69 H69       -85.2922   30.1207  -76.7561 H         1 UNK         0.0900 
     70 H70       -83.7014   29.7980  -73.8500 H         1 UNK         0.2959 
     71 H71       -81.0840   28.9465  -74.6858 H         1 UNK         0.1079 
     72 H72       -82.5725   28.4091  -72.0545 H         1 UNK         0.0837 
     73 H73       -80.8747   28.1053  -72.3453 H         1 UNK         0.0837 
     74 H74       -80.7458   31.2031  -69.9305 H         1 UNK         0.0685 
     75 H75       -81.5003   29.6301  -69.8847 H         1 UNK         0.0685 
     76 H76       -80.1063   27.6535  -69.7831 H         1 UNK         0.1434 
     77 H77       -75.8526   28.0239  -70.1179 H         1 UNK         0.1329 
     78 H78       -78.3664   31.3998  -70.9398 H         1 UNK         0.1335 
     79 H79       -75.9732   31.6991  -70.7907 H         1 UNK         0.0680 
     80 H80       -74.9283   30.4230  -70.2323 H         1 UNK         0.0680 
     81 H81       -74.2060   28.2636  -73.2269 H         1 UNK         0.1032 
     82 H82       -74.2097   28.5014  -71.5123 H         1 UNK         0.1032 
     83 H83       -72.4793   30.4028  -71.9057 H         1 UNK         0.0461 
     84 H84       -69.6338   27.8238  -71.8578 H         1 UNK         0.3453 
     85 H85       -70.0019   28.9750  -73.1183 H         1 UNK         0.3453 
     86 H86       -71.9755   30.9543  -73.9699 H         1 UNK         0.2984 
     87 H87       -72.2650   30.6282  -76.5212 H         1 UNK         0.0554 
     88 H88       -69.8042   30.9959  -76.9919 H         1 UNK         0.0847 
     89 H89       -69.3897   29.7989  -75.7689 H         1 UNK         0.0847 
     90 H90       -70.1659   31.3093  -75.3076 H         1 UNK         0.0847 
     91 H91       -71.4118   27.9100  -76.9537 H         1 UNK         0.3141 
     92 H92       -72.2334   28.0410  -80.3378 H         1 UNK         0.0743 
     93 H93       -69.8362   28.3992  -80.7491 H         1 UNK         0.0784 
     94 H94       -69.3953   27.3539  -79.4113 H         1 UNK         0.0784 
     95 H95       -70.1947   26.6817  -80.8328 H         1 UNK         0.0784 
     96 H96       -73.0684   26.4101  -79.1139 H         1 UNK         0.3213 
     97 H97       -72.9580   24.2104  -78.1337 H         1 UNK         0.0855 
     98 H98       -70.9893   23.2873  -76.8969 H         1 UNK         0.0814 
     99 H99       -72.4812   23.0322  -76.0038 H         1 UNK         0.0814 
    100 H100      -71.3653   24.3053  -75.5122 H         1 UNK         0.0814 
    101 H101      -73.4696   25.5356  -75.5579 H         1 UNK         0.3105 
    102 H102      -74.9177   27.5841  -75.6352 H         1 UNK         0.0547 
    103 H103      -76.2598   28.2964  -77.6008 H         1 UNK         0.0837 
    104 H104      -77.3510   26.9348  -77.3760 H         1 UNK         0.0837 
    105 H105      -77.2596   28.2081  -76.1604 H         1 UNK         0.0837 
    106 H106      -77.1385   25.7668  -75.2534 H         1 UNK         0.3020 
    107 H107      -75.8193   24.4686  -72.1746 H         1 UNK         0.1245 
    108 H108      -78.2444   26.0615  -73.1746 H         1 UNK         0.0781 
    109 H109      -77.0149   26.7300  -72.1601 H         1 UNK         0.0781 
    110 H110      -76.7575   25.9535  -69.4132 H         1 UNK         0.0836 
    111 H111      -78.3525   25.9534  -68.7049 H         1 UNK         0.0836 
    112 H112      -77.9429   23.8251  -74.1212 H         1 UNK         0.3022 
    113 H113      -76.4779   20.7802  -75.1126 H         1 UNK         0.0747 
    114 H114      -78.5629   19.7072  -74.2755 H         1 UNK         0.0793 
    115 H115      -77.4640   20.0270  -72.9446 H         1 UNK         0.0793 
    116 H116      -78.8573   21.0697  -73.1930 H         1 UNK         0.0793 
    117 H117      -79.0790   21.9633  -75.4904 H         1 UNK         0.3047 
    118 H118      -78.2201   24.2100  -78.0513 H         1 UNK         0.0822 
    119 H119      -79.8048   22.9159  -79.4595 H         1 UNK         0.0807 
    120 H120      -79.6260   21.5053  -78.4145 H         1 UNK         0.0807 
    121 H121      -78.2635   22.0824  -79.3639 H         1 UNK         0.0807 
    122 H122      -80.7533   23.3099  -77.1073 H         1 UNK         0.2946 
    123 H123      -82.0084   24.8479  -75.9093 H         1 UNK         0.1144 
    124 H124      -82.2841   24.2679  -73.4707 H         1 UNK         0.0793 
    125 H125      -80.5352   24.2165  -73.2701 H         1 UNK         0.0793 
    126 H126      -81.3466   23.0291  -74.2846 H         1 UNK         0.0793 
    127 H127      -80.2350   26.8082  -74.7691 H         1 UNK         0.2896 
@<TRIPOS>BOND
     1    1    2 1    
     2    1   67 1    
     3    1   68 1    
     4    1   69 1    
     5    2    3 2    
     6    2    4 am   BACKBONE|DICT|INTERRES
     7    4    5 1    
     8    4   70 1    
     9    5    6 1    
    10    5   65 1    
    11    5   71 1    
    12    6    7 1    
    13    6   72 1    
    14    6   73 1    
    15    7    8 1    
    16    8    9 1    
    17    8   74 1    
    18    8   75 1    
    19    9   10 ar   
    20    9   14 ar   
    21   10   11 ar   
    22   10   76 1    
    23   11   12 ar   
    24   11   48 1    
    25   12   13 ar   
    26   12   77 1    
    27   13   14 ar   
    28   13   15 1    
    29   14   78 1    
    30   15   16 1    
    31   15   79 1    
    32   15   80 1    
    33   16   17 1    
    34   17   18 1    
    35   17   81 1    
    36   17   82 1    
    37   18   19 1    
    38   18   22 1    
    39   18   83 1    
    40   19   20 am   BACKBONE|DICT|INTERRES
    41   19   21 2    
    42   20   84 1    
    43   20   85 1    
    44   22   23 am   BACKBONE|DICT|INTERRES
    45   22   86 1    
    46   23   24 2    
    47   23   25 1    
    48   25   26 1    
    49   25   27 1    
    50   25   87 1    
    51   26   88 1    
    52   26   89 1    
    53   26   90 1    
    54   27   28 am   BACKBONE|DICT|INTERRES
    55   27   91 1    
    56   28   29 2    
    57   28   30 1    
    58   30   31 1    
    59   30   32 1    
    60   30   92 1    
    61   31   93 1    
    62   31   94 1    
    63   31   95 1    
    64   32   33 am   BACKBONE|DICT|INTERRES
    65   32   96 1    
    66   33   34 2    
    67   33   35 1    
    68   35   36 1    
    69   35   37 1    
    70   35   97 1    
    71   36   98 1    
    72   36   99 1    
    73   36  100 1    
    74   37   38 am   BACKBONE|DICT|INTERRES
    75   37  101 1    
    76   38   39 2    
    77   38   40 1    
    78   40   41 1    
    79   40   42 1    
    80   40  102 1    
    81   41  103 1    
    82   41  104 1    
    83   41  105 1    
    84   42   43 am   BACKBONE|DICT|INTERRES
    85   42  106 1    
    86   43   44 2    
    87   43   45 1    
    88   45   46 1    
    89   45   49 1    
    90   45  107 1    
    91   46   47 1    
    92   46  108 1    
    93   46  109 1    
    94   47   48 1    
    95   48  110 1    
    96   48  111 1    
    97   49   50 am   BACKBONE|DICT|INTERRES
    98   49  112 1    
    99   50   51 2    
   100   50   52 1    
   101   52   53 1    
   102   52   54 1    
   103   52  113 1    
   104   53  114 1    
   105   53  115 1    
   106   53  116 1    
   107   54   55 am   BACKBONE|DICT|INTERRES
   108   54  117 1    
   109   55   56 2    
   110   55   57 1    
   111   57   58 1    
   112   57   59 1    
   113   57  118 1    
   114   58  119 1    
   115   58  120 1    
   116   58  121 1    
   117   59   60 am   BACKBONE|DICT|INTERRES
   118   59  122 1    
   119   60   61 2    
   120   60   62 1    
   121   62   63 1    
   122   62   64 1    
   123   62  123 1    
   124   63  124 1    
   125   63  125 1    
   126   63  126 1    
   127   64   65 am   BACKBONE|DICT|INTERRES
   128   64  127 1    
   129   65   66 2    
@<TRIPOS>SUBSTRUCTURE
     1 UNK         1 GROUP             0       ****    0 ROOT    
