@<TRIPOS>MOLECULE
3R135
127   129    1
SMALL
USER_CHARGES


@<TRIPOS>ATOM
      1 CA        -85.3443   30.1808  -74.4114 C.3       0 UNK        -0.1998 
      2 C         -83.8876   29.9040  -74.7530 C.2       0 UNK         0.4909 
      3 O         -83.4184   30.3262  -75.8107 O.2       0 UNK        -0.5240 
      4 N         -83.1733   29.2092  -73.8598 N.am      1 UNK        -0.4739 
      5 CA        -81.7795   28.7896  -74.0248 C.3       1 UNK         0.0864 
      6 C6        -80.9664   28.9831  -72.7143 C.3       11 UNK        -0.0881 
      7 S7        -81.6491   28.1284  -71.2453 S.3       11 UNK        -0.2682 
      8 C8        -80.7376   28.9423  -69.8948 C.3       11 UNK         0.0289 
      9 C9        -79.2316   28.8483  -70.0910 C.ar      11 UNK        -0.0687 
     10 C10       -78.5704   27.6297  -69.9116 C.ar      11 UNK        -0.0823 
     11 C11       -77.1940   27.5318  -70.1373 C.ar      11 UNK        -0.0830 
     12 C12       -76.4743   28.6716  -70.5101 C.ar      11 UNK        -0.1021 
     13 C13       -77.1267   29.8924  -70.7012 C.ar      11 UNK        -0.0753 
     14 C14       -78.5046   29.9756  -70.4849 C.ar      11 UNK        -0.0933 
     15 C15       -76.3533   31.1215  -71.1531 C.3       11 UNK         0.0166 
     16 S16       -76.2592   31.2209  -72.9717 S.3       11 UNK        -0.2615 
     17 C17       -74.7718   30.2197  -73.3289 C.3       11 UNK        -0.0865 
     18 CA        -73.6190   31.0284  -74.0017 C.3       10 UNK         0.0862 
     19 C         -72.8026   31.9215  -73.0137 C.2       10 UNK         0.5551 
     20 N         -73.4702   32.7350  -72.2090 N.am      10 UNK        -0.7319 
     21 O         -71.5726   31.9230  -72.9931 O.2       10 UNK        -0.5018 
     22 N         -72.7604   30.1818  -74.8485 N.am      10 UNK        -0.4509 
     23 C         -72.0628   29.1159  -74.4358 C.2       10 UNK         0.4899 
     24 O         -72.1456   28.6227  -73.3084 O.2       10 UNK        -0.4839 
     25 CA        -71.0659   28.5238  -75.4384 C.3       9 UNK         0.0222 
     26 CB        -69.6364   28.9025  -74.9872 C.3       9 UNK        -0.1966 
     27 N         -71.3007   27.0776  -75.5014 N.am      9 UNK        -0.4218 
     28 C         -70.4944   26.1071  -75.9530 C.2       9 UNK         0.5020 
     29 O         -69.3573   26.2823  -76.3928 O.2       9 UNK        -0.5274 
     30 CA        -71.0696   24.6808  -75.9273 C.3       8 UNK         0.0270 
     31 CB        -71.4085   24.2279  -74.4959 C.3       8 UNK        -0.1976 
     32 N         -72.2462   24.5507  -76.7888 N.am      8 UNK        -0.4313 
     33 C         -72.2178   24.6174  -78.1283 C.2       8 UNK         0.5041 
     34 O         -71.1841   24.7208  -78.7904 O.2       8 UNK        -0.5577 
     35 CA        -73.5664   24.5552  -78.8643 C.3       7 UNK         0.0284 
     36 CB        -73.9942   23.0949  -79.0819 C.3       7 UNK        -0.1958 
     37 N         -74.6305   25.2871  -78.1741 N.am      7 UNK        -0.4454 
     38 C         -74.6675   26.6194  -78.0250 C.2       7 UNK         0.5089 
     39 O         -73.8379   27.3891  -78.5103 O.2       7 UNK        -0.5125 
     40 CA        -75.8094   27.1918  -77.1650 C.3       6 UNK         0.0408 
     41 CB        -77.0945   27.3436  -77.9930 C.3       6 UNK        -0.1791 
     42 N         -76.0882   26.3933  -75.9687 N.am      6 UNK        -0.4762 
     43 C         -75.2060   26.1634  -74.9843 C.2       6 UNK         0.5007 
     44 O         -74.0607   26.6106  -74.9695 O.2       6 UNK        -0.5032 
     45 CA        -75.6635   25.2390  -73.8444 C.3       5 UNK         0.0783 
     46 C46       -76.5635   26.0127  -72.8560 C.3       11 UNK        -0.0857 
     47 S47       -76.9692   25.0465  -71.3613 S.3       11 UNK        -0.2512 
     48 C48       -76.4887   26.1868  -70.0197 C.3       11 UNK         0.0225 
     49 N         -76.3030   24.0334  -74.3764 N.am      5 UNK        -0.4615 
     50 C         -75.6664   23.0914  -75.0857 C.2       4 UNK         0.5053 
     51 O         -74.4612   23.1175  -75.3346 O.2       4 UNK        -0.5105 
     52 CA        -76.5304   21.9520  -75.6497 C.3       4 UNK         0.0263 
     53 CB        -76.7961   20.8884  -74.5725 C.3       4 UNK        -0.1981 
     54 N         -77.8030   22.4287  -76.1978 N.am      4 UNK        -0.4224 
     55 C         -77.9138   23.2429  -77.2580 C.2       3 UNK         0.4895 
     56 O         -76.9567   23.6489  -77.9140 O.2       3 UNK        -0.5091 
     57 CA        -79.3272   23.7218  -77.6245 C.3       3 UNK         0.0250 
     58 CB        -80.0222   22.7034  -78.5420 C.3       3 UNK        -0.1996 
     59 N         -80.1717   23.9934  -76.4573 N.am      3 UNK        -0.4254 
     60 C         -79.9091   24.9218  -75.5273 C.2       2 UNK         0.5004 
     61 O         -78.8983   25.6302  -75.5248 O.2       2 UNK        -0.5226 
     62 CA        -80.9196   25.0329  -74.3765 C.3       2 UNK         0.0269 
     63 CB        -80.4629   24.1834  -73.1803 C.3       2 UNK        -0.1926 
     64 N         -81.0847   26.4186  -73.9401 N.am      2 UNK        -0.4687 
     65 C         -81.7351   27.3660  -74.6280 C.2       1 UNK         0.5165 
     66 O         -82.3001   27.1445  -75.7018 O.2       1 UNK        -0.5079 
     67 H67       -85.6212   29.7695  -73.4408 H         1 UNK         0.0900 
     68 H68       -85.9963   29.7397  -75.1649 H         1 UNK         0.0900 
     69 H69       -85.5270   31.2548  -74.3885 H         1 UNK         0.0900 
     70 H70       -83.6179   28.8775  -73.0150 H         1 UNK         0.2959 
     71 H71       -81.3041   29.4262  -74.7745 H         1 UNK         0.1079 
     72 H72       -79.9280   28.6776  -72.8594 H         1 UNK         0.0837 
     73 H73       -80.9213   30.0496  -72.4875 H         1 UNK         0.0837 
     74 H74       -81.0560   29.9837  -69.8261 H         1 UNK         0.0685 
     75 H75       -81.0113   28.4746  -68.9481 H         1 UNK         0.0685 
     76 H76       -79.1332   26.7495  -69.6317 H         1 UNK         0.1434 
     77 H77       -75.4093   28.6002  -70.6798 H         1 UNK         0.1329 
     78 H78       -79.0140   30.9168  -70.6404 H         1 UNK         0.1335 
     79 H79       -76.8444   32.0220  -70.7811 H         1 UNK         0.0680 
     80 H80       -75.3533   31.1231  -70.7166 H         1 UNK         0.0680 
     81 H81       -75.0939   29.4148  -73.9919 H         1 UNK         0.1032 
     82 H82       -74.4126   29.7237  -72.4272 H         1 UNK         0.1032 
     83 H83       -74.0703   31.7255  -74.7089 H         1 UNK         0.0461 
     84 H84       -74.4783   32.7604  -72.2382 H         1 UNK         0.3453 
     85 H85       -72.9628   33.3342  -71.5771 H         1 UNK         0.3453 
     86 H86       -72.5982   30.5308  -75.7823 H         1 UNK         0.2984 
     87 H87       -71.2555   28.9378  -76.4302 H         1 UNK         0.0554 
     88 H88       -68.8985   28.7035  -75.7635 H         1 UNK         0.0847 
     89 H89       -69.3404   28.3599  -74.0887 H         1 UNK         0.0847 
     90 H90       -69.5654   29.9676  -74.7602 H         1 UNK         0.0847 
     91 H91       -72.2335   26.8087  -75.1860 H         1 UNK         0.3141 
     92 H92       -70.2999   24.0078  -76.3113 H         1 UNK         0.0743 
     93 H93       -72.2176   24.8132  -74.0589 H         1 UNK         0.0784 
     94 H94       -71.7111   23.1807  -74.4764 H         1 UNK         0.0784 
     95 H95       -70.5424   24.3271  -73.8404 H         1 UNK         0.0784 
     96 H96       -73.1374   24.4004  -76.3275 H         1 UNK         0.3213 
     97 H97       -73.4279   25.0168  -79.8443 H         1 UNK         0.0855 
     98 H98       -74.1918   22.5871  -78.1371 H         1 UNK         0.0814 
     99 H99       -73.2164   22.5322  -79.5999 H         1 UNK         0.0814 
    100 H100      -74.8971   23.0332  -79.6896 H         1 UNK         0.0814 
    101 H101      -75.4052   24.7340  -77.8145 H         1 UNK         0.3105 
    102 H102      -75.5039   28.1848  -76.8283 H         1 UNK         0.0547 
    103 H103      -76.9254   27.9810  -78.8618 H         1 UNK         0.0837 
    104 H104      -77.4538   26.3819  -78.3591 H         1 UNK         0.0837 
    105 H105      -77.8937   27.7975  -77.4067 H         1 UNK         0.0837 
    106 H106      -77.0252   26.0051  -75.8834 H         1 UNK         0.3020 
    107 H107      -74.7642   24.9263  -73.3084 H         1 UNK         0.1245 
    108 H108      -77.4985   26.3182  -73.3291 H         1 UNK         0.0781 
    109 H109      -76.0622   26.9351  -72.5618 H         1 UNK         0.0781 
    110 H110      -75.4049   26.3126  -70.0300 H         1 UNK         0.0836 
    111 H111      -76.7349   25.7311  -69.0596 H         1 UNK         0.0836 
    112 H112      -77.3000   23.9599  -74.2432 H         1 UNK         0.3022 
    113 H113      -75.9706   21.4838  -76.4623 H         1 UNK         0.0747 
    114 H114      -77.3375   20.0355  -74.9822 H         1 UNK         0.0793 
    115 H115      -75.8594   20.5084  -74.1623 H         1 UNK         0.0793 
    116 H116      -77.3775   21.2881  -73.7405 H         1 UNK         0.0793 
    117 H117      -78.6458   22.1409  -75.7231 H         1 UNK         0.3047 
    118 H118      -79.2212   24.6581  -78.1763 H         1 UNK         0.0822 
    119 H119      -80.9863   23.0752  -78.8897 H         1 UNK         0.0807 
    120 H120      -80.1906   21.7507  -78.0383 H         1 UNK         0.0807 
    121 H121      -79.4176   22.5012  -79.4275 H         1 UNK         0.0807 
    122 H122      -81.0182   23.4480  -76.3781 H         1 UNK         0.2946 
    123 H123      -81.8898   24.6649  -74.7185 H         1 UNK         0.1144 
    124 H124      -81.1865   24.2244  -72.3658 H         1 UNK         0.0793 
    125 H125      -79.5035   24.5223  -72.7902 H         1 UNK         0.0793 
    126 H126      -80.3508   23.1351  -73.4599 H         1 UNK         0.0793 
    127 H127      -80.6598   26.6740  -73.0595 H         1 UNK         0.2896 
@<TRIPOS>BOND
     1    1    2 1    
     2    1   67 1    
     3    1   68 1    
     4    1   69 1    
     5    2    3 2    
     6    2    4 am   BACKBONE|DICT|INTERRES
     7    4    5 1    
     8    4   70 1    
     9    5    6 1    
    10    5   65 1    
    11    5   71 1    
    12    6    7 1    
    13    6   72 1    
    14    6   73 1    
    15    7    8 1    
    16    8    9 1    
    17    8   74 1    
    18    8   75 1    
    19    9   10 ar   
    20    9   14 ar   
    21   10   11 ar   
    22   10   76 1    
    23   11   12 ar   
    24   11   48 1    
    25   12   13 ar   
    26   12   77 1    
    27   13   14 ar   
    28   13   15 1    
    29   14   78 1    
    30   15   16 1    
    31   15   79 1    
    32   15   80 1    
    33   16   17 1    
    34   17   18 1    
    35   17   81 1    
    36   17   82 1    
    37   18   19 1    
    38   18   22 1    
    39   18   83 1    
    40   19   20 am   BACKBONE|DICT|INTERRES
    41   19   21 2    
    42   20   84 1    
    43   20   85 1    
    44   22   23 am   BACKBONE|DICT|INTERRES
    45   22   86 1    
    46   23   24 2    
    47   23   25 1    
    48   25   26 1    
    49   25   27 1    
    50   25   87 1    
    51   26   88 1    
    52   26   89 1    
    53   26   90 1    
    54   27   28 am   BACKBONE|DICT|INTERRES
    55   27   91 1    
    56   28   29 2    
    57   28   30 1    
    58   30   31 1    
    59   30   32 1    
    60   30   92 1    
    61   31   93 1    
    62   31   94 1    
    63   31   95 1    
    64   32   33 am   BACKBONE|DICT|INTERRES
    65   32   96 1    
    66   33   34 2    
    67   33   35 1    
    68   35   36 1    
    69   35   37 1    
    70   35   97 1    
    71   36   98 1    
    72   36   99 1    
    73   36  100 1    
    74   37   38 am   BACKBONE|DICT|INTERRES
    75   37  101 1    
    76   38   39 2    
    77   38   40 1    
    78   40   41 1    
    79   40   42 1    
    80   40  102 1    
    81   41  103 1    
    82   41  104 1    
    83   41  105 1    
    84   42   43 am   BACKBONE|DICT|INTERRES
    85   42  106 1    
    86   43   44 2    
    87   43   45 1    
    88   45   46 1    
    89   45   49 1    
    90   45  107 1    
    91   46   47 1    
    92   46  108 1    
    93   46  109 1    
    94   47   48 1    
    95   48  110 1    
    96   48  111 1    
    97   49   50 am   BACKBONE|DICT|INTERRES
    98   49  112 1    
    99   50   51 2    
   100   50   52 1    
   101   52   53 1    
   102   52   54 1    
   103   52  113 1    
   104   53  114 1    
   105   53  115 1    
   106   53  116 1    
   107   54   55 am   BACKBONE|DICT|INTERRES
   108   54  117 1    
   109   55   56 2    
   110   55   57 1    
   111   57   58 1    
   112   57   59 1    
   113   57  118 1    
   114   58  119 1    
   115   58  120 1    
   116   58  121 1    
   117   59   60 am   BACKBONE|DICT|INTERRES
   118   59  122 1    
   119   60   61 2    
   120   60   62 1    
   121   62   63 1    
   122   62   64 1    
   123   62  123 1    
   124   63  124 1    
   125   63  125 1    
   126   63  126 1    
   127   64   65 am   BACKBONE|DICT|INTERRES
   128   64  127 1    
   129   65   66 2    
@<TRIPOS>SUBSTRUCTURE
     1 UNK         1 GROUP             0       ****    0 ROOT    
