@<TRIPOS>MOLECULE
3R135
127   129    1
SMALL
USER_CHARGES


@<TRIPOS>ATOM
      1 CA        -82.9748   23.5127  -71.3402 C.3       0 UNK        -0.1998 
      2 C         -82.3604   24.5417  -72.2750 C.2       0 UNK         0.4909 
      3 O         -81.5245   24.1876  -73.1060 O.2       0 UNK        -0.5240 
      4 N         -82.7853   25.8089  -72.1668 N.am      1 UNK        -0.4739 
      5 CA        -82.2717   26.9806  -72.9036 C.3       1 UNK         0.0864 
      6 C6        -80.7948   27.3229  -72.5687 C.3       11 UNK        -0.0881 
      7 S7        -80.4203   27.3858  -70.7808 S.3       11 UNK        -0.2682 
      8 C8        -79.5411   28.9732  -70.6267 C.3       11 UNK         0.0289 
      9 C9        -78.3043   29.0365  -71.5134 C.ar      11 UNK        -0.0687 
     10 C10       -78.3042   29.8412  -72.6574 C.ar      11 UNK        -0.0823 
     11 C11       -77.1785   29.9099  -73.4825 C.ar      11 UNK        -0.0830 
     12 C12       -76.0343   29.1876  -73.1317 C.ar      11 UNK        -0.1021 
     13 C13       -76.0300   28.3555  -72.0098 C.ar      11 UNK        -0.0753 
     14 C14       -77.1654   28.2888  -71.1974 C.ar      11 UNK        -0.0933 
     15 C15       -74.8043   27.5123  -71.7025 C.3       11 UNK         0.0166 
     16 S16       -73.6742   28.3883  -70.5806 S.3       11 UNK        -0.2615 
     17 C17       -72.0421   27.8265  -71.1797 C.3       11 UNK        -0.0865 
     18 CA        -71.2899   28.9480  -71.9468 C.3       10 UNK         0.0862 
     19 C         -69.8045   28.5710  -72.2259 C.2       10 UNK         0.5551 
     20 N         -69.2875   28.7107  -73.4406 N.am      10 UNK        -0.7319 
     21 O         -69.0962   28.1564  -71.3116 O.2       10 UNK        -0.5018 
     22 N         -72.0289   29.3819  -73.1449 N.am      10 UNK        -0.4509 
     23 C         -72.0939   30.6438  -73.5864 C.2       10 UNK         0.4899 
     24 O         -71.5913   31.6023  -72.9972 O.2       10 UNK        -0.4839 
     25 CA        -72.8466   30.8676  -74.9158 C.3       9 UNK         0.0222 
     26 CB        -72.5008   32.2217  -75.5713 C.3       9 UNK        -0.1966 
     27 N         -72.6855   29.7755  -75.8890 N.am      9 UNK        -0.4218 
     28 C         -71.5308   29.3183  -76.3987 C.2       9 UNK         0.5020 
     29 O         -70.4151   29.6907  -76.0303 O.2       9 UNK        -0.5274 
     30 CA        -71.6706   28.2552  -77.4972 C.3       8 UNK         0.0270 
     31 CB        -70.3899   28.0722  -78.3411 C.3       8 UNK        -0.1976 
     32 N         -72.1555   26.9829  -76.9546 N.am      8 UNK        -0.4313 
     33 C         -71.5099   26.1094  -76.1634 C.2       8 UNK         0.5041 
     34 O         -70.3638   26.2774  -75.7481 O.2       8 UNK        -0.5577 
     35 CA        -72.2547   24.8186  -75.7510 C.3       7 UNK         0.0284 
     36 CB        -72.4522   24.7762  -74.2260 C.3       7 UNK        -0.1958 
     37 N         -73.5572   24.6426  -76.4012 N.am      7 UNK        -0.4454 
     38 C         -73.7478   24.3804  -77.7046 C.2       7 UNK         0.5089 
     39 O         -72.8358   24.0916  -78.4790 O.2       7 UNK        -0.5125 
     40 CA        -75.1833   24.5235  -78.2572 C.3       6 UNK         0.0408 
     41 CB        -75.7895   23.1387  -78.5300 C.3       6 UNK        -0.1791 
     42 N         -76.0852   25.2952  -77.3893 N.am      6 UNK        -0.4762 
     43 C         -75.8932   26.5752  -77.0215 C.2       6 UNK         0.5007 
     44 O         -74.9910   27.2716  -77.4894 O.2       6 UNK        -0.5032 
     45 CA        -76.7531   27.1435  -75.8671 C.3       5 UNK         0.0783 
     46 C46       -77.6057   28.3721  -76.2787 C.3       11 UNK        -0.0857 
     47 S47       -76.6148   29.9110  -76.2440 S.3       11 UNK        -0.2512 
     48 C48       -77.2161   30.7672  -74.7451 C.3       11 UNK         0.0225 
     49 N         -77.5293   26.1225  -75.1541 N.am      5 UNK        -0.4615 
     50 C         -76.9791   25.1759  -74.3790 C.2       4 UNK         0.5053 
     51 O         -75.7702   25.1108  -74.1530 O.2       4 UNK        -0.5105 
     52 CA        -77.9006   24.0803  -73.8160 C.3       4 UNK         0.0263 
     53 CB        -78.1643   24.3040  -72.3184 C.3       4 UNK        -0.1981 
     54 N         -79.1695   23.9010  -74.5381 N.am      4 UNK        -0.4224 
     55 C         -79.2592   23.4832  -75.8111 C.2       3 UNK         0.4895 
     56 O         -78.2831   23.3637  -76.5508 O.2       3 UNK        -0.5091 
     57 CA        -80.6465   23.1250  -76.3603 C.3       3 UNK         0.0250 
     58 CB        -81.0703   21.7314  -75.8666 C.3       3 UNK        -0.1996 
     59 N         -81.6738   24.0995  -75.9880 N.am      3 UNK        -0.4254 
     60 C         -82.4381   24.7746  -76.8610 C.2       2 UNK         0.5004 
     61 O         -82.3070   24.7006  -78.0836 O.2       2 UNK        -0.5226 
     62 CA        -83.5637   25.6666  -76.2976 C.3       2 UNK         0.0269 
     63 CB        -84.9274   24.9760  -76.4651 C.3       2 UNK        -0.1926 
     64 N         -83.3821   26.0172  -74.8880 N.am      2 UNK        -0.4687 
     65 C         -82.4687   26.8871  -74.4372 C.2       1 UNK         0.5165 
     66 O         -81.7747   27.5747  -75.1887 O.2       1 UNK        -0.5079 
     67 H67       -83.4649   22.7285  -71.9164 H         1 UNK         0.0900 
     68 H68       -82.1971   23.0531  -70.7311 H         1 UNK         0.0900 
     69 H69       -83.7121   23.9568  -70.6718 H         1 UNK         0.0900 
     70 H70       -83.4876   26.0245  -71.4724 H         1 UNK         0.2959 
     71 H71       -82.8834   27.8257  -72.5837 H         1 UNK         0.1079 
     72 H72       -80.1227   26.6037  -73.0354 H         1 UNK         0.0837 
     73 H73       -80.5446   28.2866  -73.0123 H         1 UNK         0.0837 
     74 H74       -80.2302   29.7862  -70.8610 H         1 UNK         0.0685 
     75 H75       -79.2459   29.1137  -69.5860 H         1 UNK         0.0685 
     76 H76       -79.1891   30.4092  -72.9104 H         1 UNK         0.1434 
     77 H77       -75.1550   29.2395  -73.7553 H         1 UNK         0.1329 
     78 H78       -77.1670   27.6505  -70.3244 H         1 UNK         0.1335 
     79 H79       -74.2971   27.2664  -72.6358 H         1 UNK         0.0680 
     80 H80       -75.0974   26.5610  -71.2556 H         1 UNK         0.0680 
     81 H81       -71.4718   27.5184  -70.3013 H         1 UNK         0.1032 
     82 H82       -72.1421   26.9312  -71.7952 H         1 UNK         0.1032 
     83 H83       -71.2290   29.7962  -71.2622 H         1 UNK         0.0461 
     84 H84       -69.8389   29.0584  -74.2180 H         1 UNK         0.3453 
     85 H85       -68.3254   28.4560  -73.5935 H         1 UNK         0.3453 
     86 H86       -72.4294   28.6511  -73.7114 H         1 UNK         0.2984 
     87 H87       -73.9058   30.9006  -74.6619 H         1 UNK         0.0554 
     88 H88       -72.7399   33.0530  -74.9068 H         1 UNK         0.0847 
     89 H89       -73.0665   32.3738  -76.4905 H         1 UNK         0.0847 
     90 H90       -71.4400   32.2938  -75.8137 H         1 UNK         0.0847 
     91 H91       -73.5451   29.3868  -76.2553 H         1 UNK         0.3141 
     92 H92       -72.4480   28.6080  -78.1773 H         1 UNK         0.0743 
     93 H93       -69.5386   27.7563  -77.7376 H         1 UNK         0.0784 
     94 H94       -70.5365   27.3318  -79.1275 H         1 UNK         0.0784 
     95 H95       -70.1095   29.0090  -78.8240 H         1 UNK         0.0784 
     96 H96       -73.1215   26.7759  -77.1921 H         1 UNK         0.3213 
     97 H97       -71.6192   23.9780  -76.0374 H         1 UNK         0.0855 
     98 H98       -73.0711   25.6033  -73.8794 H         1 UNK         0.0814 
     99 H99       -71.4969   24.8416  -73.7032 H         1 UNK         0.0814 
    100 H100      -72.9294   23.8477  -73.9118 H         1 UNK         0.0814 
    101 H101      -74.3709   24.8292  -75.8256 H         1 UNK         0.3105 
    102 H102      -75.1112   25.0559  -79.2077 H         1 UNK         0.0547 
    103 H103      -75.1662   22.5670  -79.2188 H         1 UNK         0.0837 
    104 H104      -75.8843   22.5535  -77.6144 H         1 UNK         0.0837 
    105 H105      -76.7788   23.2189  -78.9806 H         1 UNK         0.0837 
    106 H106      -76.8476   24.7732  -76.9667 H         1 UNK         0.3020 
    107 H107      -76.0151   27.4873  -75.1433 H         1 UNK         0.1245 
    108 H108      -78.4536   28.4955  -75.6025 H         1 UNK         0.0781 
    109 H109      -78.0382   28.2419  -77.2724 H         1 UNK         0.0781 
    110 H110      -78.2298   31.1208  -74.9400 H         1 UNK         0.0836 
    111 H111      -76.6077   31.6577  -74.5824 H         1 UNK         0.0836 
    112 H112      -78.5251   26.1007  -75.3170 H         1 UNK         0.3022 
    113 H113      -77.3537   23.1399  -73.9118 H         1 UNK         0.0747 
    114 H114      -78.8101   23.5292  -71.9050 H         1 UNK         0.0793 
    115 H115      -77.2302   24.2820  -71.7555 H         1 UNK         0.0793 
    116 H116      -78.6281   25.2681  -72.1218 H         1 UNK         0.0793 
    117 H117      -80.0225   23.9810  -73.9838 H         1 UNK         0.3047 
    118 H118      -80.5475   23.0743  -77.4468 H         1 UNK         0.0822 
    119 H119      -82.0079   21.4188  -76.3265 H         1 UNK         0.0807 
    120 H120      -81.2056   21.7091  -74.7843 H         1 UNK         0.0807 
    121 H121      -80.3198   20.9809  -76.1192 H         1 UNK         0.0807 
    122 H122      -81.8243   24.2354  -74.9922 H         1 UNK         0.2946 
    123 H123      -83.5703   26.5873  -76.8860 H         1 UNK         0.1144 
    124 H124      -85.7426   25.6212  -76.1370 H         1 UNK         0.0793 
    125 H125      -84.9825   24.0471  -75.8959 H         1 UNK         0.0793 
    126 H126      -85.1143   24.7284  -77.5111 H         1 UNK         0.0793 
    127 H127      -83.9109   25.4884  -74.2091 H         1 UNK         0.2896 
@<TRIPOS>BOND
     1    1    2 1    
     2    1   67 1    
     3    1   68 1    
     4    1   69 1    
     5    2    3 2    
     6    2    4 am   BACKBONE|DICT|INTERRES
     7    4    5 1    
     8    4   70 1    
     9    5    6 1    
    10    5   65 1    
    11    5   71 1    
    12    6    7 1    
    13    6   72 1    
    14    6   73 1    
    15    7    8 1    
    16    8    9 1    
    17    8   74 1    
    18    8   75 1    
    19    9   10 ar   
    20    9   14 ar   
    21   10   11 ar   
    22   10   76 1    
    23   11   12 ar   
    24   11   48 1    
    25   12   13 ar   
    26   12   77 1    
    27   13   14 ar   
    28   13   15 1    
    29   14   78 1    
    30   15   16 1    
    31   15   79 1    
    32   15   80 1    
    33   16   17 1    
    34   17   18 1    
    35   17   81 1    
    36   17   82 1    
    37   18   19 1    
    38   18   22 1    
    39   18   83 1    
    40   19   20 am   BACKBONE|DICT|INTERRES
    41   19   21 2    
    42   20   84 1    
    43   20   85 1    
    44   22   23 am   BACKBONE|DICT|INTERRES
    45   22   86 1    
    46   23   24 2    
    47   23   25 1    
    48   25   26 1    
    49   25   27 1    
    50   25   87 1    
    51   26   88 1    
    52   26   89 1    
    53   26   90 1    
    54   27   28 am   BACKBONE|DICT|INTERRES
    55   27   91 1    
    56   28   29 2    
    57   28   30 1    
    58   30   31 1    
    59   30   32 1    
    60   30   92 1    
    61   31   93 1    
    62   31   94 1    
    63   31   95 1    
    64   32   33 am   BACKBONE|DICT|INTERRES
    65   32   96 1    
    66   33   34 2    
    67   33   35 1    
    68   35   36 1    
    69   35   37 1    
    70   35   97 1    
    71   36   98 1    
    72   36   99 1    
    73   36  100 1    
    74   37   38 am   BACKBONE|DICT|INTERRES
    75   37  101 1    
    76   38   39 2    
    77   38   40 1    
    78   40   41 1    
    79   40   42 1    
    80   40  102 1    
    81   41  103 1    
    82   41  104 1    
    83   41  105 1    
    84   42   43 am   BACKBONE|DICT|INTERRES
    85   42  106 1    
    86   43   44 2    
    87   43   45 1    
    88   45   46 1    
    89   45   49 1    
    90   45  107 1    
    91   46   47 1    
    92   46  108 1    
    93   46  109 1    
    94   47   48 1    
    95   48  110 1    
    96   48  111 1    
    97   49   50 am   BACKBONE|DICT|INTERRES
    98   49  112 1    
    99   50   51 2    
   100   50   52 1    
   101   52   53 1    
   102   52   54 1    
   103   52  113 1    
   104   53  114 1    
   105   53  115 1    
   106   53  116 1    
   107   54   55 am   BACKBONE|DICT|INTERRES
   108   54  117 1    
   109   55   56 2    
   110   55   57 1    
   111   57   58 1    
   112   57   59 1    
   113   57  118 1    
   114   58  119 1    
   115   58  120 1    
   116   58  121 1    
   117   59   60 am   BACKBONE|DICT|INTERRES
   118   59  122 1    
   119   60   61 2    
   120   60   62 1    
   121   62   63 1    
   122   62   64 1    
   123   62  123 1    
   124   63  124 1    
   125   63  125 1    
   126   63  126 1    
   127   64   65 am   BACKBONE|DICT|INTERRES
   128   64  127 1    
   129   65   66 2    
@<TRIPOS>SUBSTRUCTURE
     1 UNK         1 GROUP             0       ****    0 ROOT    
