@<TRIPOS>MOLECULE
3R135
127   129    1
SMALL
USER_CHARGES


@<TRIPOS>ATOM
      1 CA        -82.7344   22.6403  -73.4364 C.3       0 UNK        -0.1998 
      2 C         -82.5399   24.1412  -73.5860 C.2       0 UNK         0.4909 
      3 O         -82.9210   24.7091  -74.6100 O.2       0 UNK        -0.5240 
      4 N         -81.9478   24.7914  -72.5749 N.am      1 UNK        -0.4739 
      5 CA        -81.6149   26.2200  -72.5904 C.3       1 UNK         0.0864 
      6 C6        -81.1972   26.7172  -71.1857 C.3       11 UNK        -0.0881 
      7 S7        -81.3215   28.5322  -71.0204 S.3       11 UNK        -0.2682 
      8 C8        -80.2499   28.8546  -69.5838 C.3       11 UNK         0.0289 
      9 C9        -78.7753   28.9146  -69.9606 C.ar      11 UNK        -0.0687 
     10 C10       -77.9842   27.7641  -69.8992 C.ar      11 UNK        -0.0823 
     11 C11       -76.6256   27.8182  -70.2203 C.ar      11 UNK        -0.0830 
     12 C12       -76.0485   29.0418  -70.5728 C.ar      11 UNK        -0.1021 
     13 C13       -76.8263   30.1987  -70.6406 C.ar      11 UNK        -0.0753 
     14 C14       -78.1914   30.1286  -70.3397 C.ar      11 UNK        -0.0933 
     15 C15       -76.1872   31.5258  -71.0180 C.3       11 UNK         0.0166 
     16 S16       -76.1678   31.7797  -72.8194 S.3       11 UNK        -0.2615 
     17 C17       -74.5740   31.0359  -73.3418 C.3       11 UNK        -0.0865 
     18 CA        -74.6758   29.8812  -74.3877 C.3       10 UNK         0.0862 
     19 C         -75.6086   30.2100  -75.5908 C.2       10 UNK         0.5551 
     20 N         -75.1571   30.9724  -76.5780 N.am      10 UNK        -0.7319 
     21 O         -76.7440   29.7507  -75.6361 O.2       10 UNK        -0.5018 
     22 N         -73.3622   29.3553  -74.8172 N.am      10 UNK        -0.4509 
     23 C         -72.3780   30.0325  -75.4296 C.2       10 UNK         0.4899 
     24 O         -72.4071   31.2511  -75.6074 O.2       10 UNK        -0.4839 
     25 CA        -71.1946   29.2439  -76.0260 C.3       9 UNK         0.0222 
     26 CB        -69.8404   29.9446  -75.7817 C.3       9 UNK        -0.1966 
     27 N         -71.1370   27.8194  -75.6784 N.am      9 UNK        -0.4218 
     28 C         -70.8155   27.2626  -74.4996 C.2       9 UNK         0.5020 
     29 O         -70.5521   27.9113  -73.4862 O.2       9 UNK        -0.5274 
     30 CA        -70.7749   25.7209  -74.4463 C.3       8 UNK         0.0270 
     31 CB        -71.2233   25.1784  -73.0769 C.3       8 UNK        -0.1976 
     32 N         -71.6268   25.1392  -75.4848 N.am      8 UNK        -0.4313 
     33 C         -71.2164   24.4212  -76.5388 C.2       8 UNK         0.5041 
     34 O         -70.0446   24.0924  -76.7265 O.2       8 UNK        -0.5577 
     35 CA        -72.2833   24.0101  -77.5765 C.3       7 UNK         0.0284 
     36 CB        -72.6967   22.5447  -77.3657 C.3       7 UNK        -0.1958 
     37 N         -73.4866   24.8490  -77.5636 N.am      7 UNK        -0.4454 
     38 C         -73.5212   26.1569  -77.8618 C.2       7 UNK         0.5089 
     39 O         -72.5438   26.7917  -78.2581 O.2       7 UNK        -0.5125 
     40 CA        -74.8424   26.9022  -77.5842 C.3       6 UNK         0.0408 
     41 CB        -75.7018   26.9504  -78.8562 C.3       6 UNK        -0.1791 
     42 N         -75.6232   26.3423  -76.4687 N.am      6 UNK        -0.4762 
     43 C         -75.1480   26.1525  -75.2271 C.2       6 UNK         0.5007 
     44 O         -74.0246   26.5272  -74.8923 O.2       6 UNK        -0.5032 
     45 CA        -75.9942   25.3623  -74.2057 C.3       5 UNK         0.0783 
     46 C46       -76.3433   26.1970  -72.9492 C.3       11 UNK        -0.0857 
     47 S47       -74.9434   26.2543  -71.7754 S.3       11 UNK        -0.2512 
     48 C48       -75.7840   26.5514  -70.1894 C.3       11 UNK         0.0225 
     49 N         -77.1719   24.7022  -74.7748 N.am      5 UNK        -0.4615 
     50 C         -77.1268   23.6074  -75.5467 C.2       4 UNK         0.5053 
     51 O         -76.0808   23.1201  -75.9770 O.2       4 UNK        -0.5105 
     52 CA        -78.4688   22.9450  -75.8871 C.3       4 UNK         0.0263 
     53 CB        -79.0349   22.2041  -74.6639 C.3       4 UNK        -0.1981 
     54 N         -79.4369   23.9396  -76.3438 N.am      4 UNK        -0.4224 
     55 C         -79.6878   24.2194  -77.6302 C.2       3 UNK         0.4895 
     56 O         -79.2028   23.5985  -78.5767 O.2       3 UNK        -0.5091 
     57 CA        -80.6289   25.4041  -77.9206 C.3       3 UNK         0.0250 
     58 CB        -82.0660   24.9096  -78.1494 C.3       3 UNK        -0.1996 
     59 N         -80.6247   26.4270  -76.8699 N.am      3 UNK        -0.4254 
     60 C         -79.5571   27.1723  -76.5459 C.2       2 UNK         0.5004 
     61 O         -78.4761   27.0918  -77.1245 O.2       2 UNK        -0.5226 
     62 CA        -79.6975   28.1241  -75.3454 C.3       2 UNK         0.0269 
     63 CB        -80.1145   29.5266  -75.8150 C.3       2 UNK        -0.1926 
     64 N         -80.6355   27.6608  -74.3185 N.am      2 UNK        -0.4687 
     65 C         -80.5249   26.5103  -73.6421 C.2       1 UNK         0.5165 
     66 O         -79.6202   25.6912  -73.8293 O.2       1 UNK        -0.5079 
     67 H67       -82.3558   22.1236  -74.3177 H         1 UNK         0.0900 
     68 H68       -83.7942   22.4085  -73.3353 H         1 UNK         0.0900 
     69 H69       -82.2131   22.2471  -72.5638 H         1 UNK         0.0900 
     70 H70       -81.6303   24.2724  -71.7689 H         1 UNK         0.2959 
     71 H71       -82.5249   26.7475  -72.8863 H         1 UNK         0.1079 
     72 H72       -81.8516   26.2855  -70.4266 H         1 UNK         0.0837 
     73 H73       -80.1907   26.3766  -70.9436 H         1 UNK         0.0837 
     74 H74       -80.5493   29.8028  -69.1347 H         1 UNK         0.0685 
     75 H75       -80.4200   28.0942  -68.8199 H         1 UNK         0.0685 
     76 H76       -78.4254   26.8245  -69.5980 H         1 UNK         0.1434 
     77 H77       -74.9946   29.0876  -70.8100 H         1 UNK         0.1329 
     78 H78       -78.7983   31.0225  -70.3891 H         1 UNK         0.1335 
     79 H79       -76.7474   32.3435  -70.5618 H         1 UNK         0.0680 
     80 H80       -75.1764   31.5956  -70.6135 H         1 UNK         0.0680 
     81 H81       -74.0303   30.6780  -72.4672 H         1 UNK         0.1032 
     82 H82       -73.9756   31.8560  -73.7378 H         1 UNK         0.1032 
     83 H83       -75.1457   29.0451  -73.8684 H         1 UNK         0.0461 
     84 H84       -75.7535   31.1865  -77.3607 H         1 UNK         0.3453 
     85 H85       -74.2180   31.3468  -76.5227 H         1 UNK         0.3453 
     86 H86       -73.2835   28.3441  -74.7649 H         1 UNK         0.2984 
     87 H87       -71.3648   29.2565  -77.1035 H         1 UNK         0.0554 
     88 H88       -69.0181   29.3923  -76.2364 H         1 UNK         0.0847 
     89 H89       -69.6252   30.0551  -74.7186 H         1 UNK         0.0847 
     90 H90       -69.8327   30.9453  -76.2156 H         1 UNK         0.0847 
     91 H91       -71.3675   27.1942  -76.4423 H         1 UNK         0.3141 
     92 H92       -69.7342   25.4308  -74.6026 H         1 UNK         0.0743 
     93 H93       -72.2402   25.4904  -72.8383 H         1 UNK         0.0784 
     94 H94       -71.1922   24.0892  -73.0526 H         1 UNK         0.0784 
     95 H95       -70.5742   25.5378  -72.2775 H         1 UNK         0.0784 
     96 H96       -72.6056   25.4093  -75.4226 H         1 UNK         0.3213 
     97 H97       -71.8258   24.1006  -78.5641 H         1 UNK         0.0855 
     98 H98       -73.1869   22.3988  -76.4020 H         1 UNK         0.0814 
     99 H99       -71.8284   21.8848  -77.3939 H         1 UNK         0.0814 
    100 H100      -73.3822   22.2090  -78.1440 H         1 UNK         0.0814 
    101 H101      -74.3384   24.4151  -77.2304 H         1 UNK         0.3105 
    102 H102      -74.5795   27.9268  -77.3157 H         1 UNK         0.0547 
    103 H103      -75.1164   27.2812  -79.7153 H         1 UNK         0.0837 
    104 H104      -76.1207   25.9735  -79.1002 H         1 UNK         0.0837 
    105 H105      -76.5264   27.6541  -78.7473 H         1 UNK         0.0837 
    106 H106      -76.5885   26.1024  -76.6649 H         1 UNK         0.3020 
    107 H107      -75.3425   24.5488  -73.8767 H         1 UNK         0.1245 
    108 H108      -77.1888   25.7482  -72.4250 H         1 UNK         0.0781 
    109 H109      -76.6569   27.2101  -73.2088 H         1 UNK         0.0781 
    110 H110      -75.0352   26.6394  -69.4012 H         1 UNK         0.0836 
    111 H111      -76.3919   25.6793  -69.9436 H         1 UNK         0.0836 
    112 H112      -78.0751   25.0494  -74.4561 H         1 UNK         0.3022 
    113 H113      -78.2879   22.2061  -76.6708 H         1 UNK         0.0747 
    114 H114      -79.9432   21.6596  -74.9211 H         1 UNK         0.0793 
    115 H115      -78.3185   21.4746  -74.2835 H         1 UNK         0.0793 
    116 H116      -79.2735   22.8853  -73.8459 H         1 UNK         0.0793 
    117 H117      -79.8508   24.5294  -75.6320 H         1 UNK         0.3047 
    118 H118      -80.2800   25.8764  -78.8416 H         1 UNK         0.0822 
    119 H119      -82.7307   25.7293  -78.4223 H         1 UNK         0.0807 
    120 H120      -82.4737   24.4270  -77.2606 H         1 UNK         0.0807 
    121 H121      -82.1025   24.1807  -78.9602 H         1 UNK         0.0807 
    122 H122      -81.4710   26.5320  -76.3277 H         1 UNK         0.2946 
    123 H123      -78.7129   28.1938  -74.8781 H         1 UNK         0.1144 
    124 H124      -81.1131   29.5284  -76.2533 H         1 UNK         0.0793 
    125 H125      -79.4238   29.9029  -76.5713 H         1 UNK         0.0793 
    126 H126      -80.1035   30.2392  -74.9901 H         1 UNK         0.0793 
    127 H127      -81.3953   28.2859  -74.0893 H         1 UNK         0.2896 
@<TRIPOS>BOND
     1    1    2 1    
     2    1   67 1    
     3    1   68 1    
     4    1   69 1    
     5    2    3 2    
     6    2    4 am   BACKBONE|DICT|INTERRES
     7    4    5 1    
     8    4   70 1    
     9    5    6 1    
    10    5   65 1    
    11    5   71 1    
    12    6    7 1    
    13    6   72 1    
    14    6   73 1    
    15    7    8 1    
    16    8    9 1    
    17    8   74 1    
    18    8   75 1    
    19    9   10 ar   
    20    9   14 ar   
    21   10   11 ar   
    22   10   76 1    
    23   11   12 ar   
    24   11   48 1    
    25   12   13 ar   
    26   12   77 1    
    27   13   14 ar   
    28   13   15 1    
    29   14   78 1    
    30   15   16 1    
    31   15   79 1    
    32   15   80 1    
    33   16   17 1    
    34   17   18 1    
    35   17   81 1    
    36   17   82 1    
    37   18   19 1    
    38   18   22 1    
    39   18   83 1    
    40   19   20 am   BACKBONE|DICT|INTERRES
    41   19   21 2    
    42   20   84 1    
    43   20   85 1    
    44   22   23 am   BACKBONE|DICT|INTERRES
    45   22   86 1    
    46   23   24 2    
    47   23   25 1    
    48   25   26 1    
    49   25   27 1    
    50   25   87 1    
    51   26   88 1    
    52   26   89 1    
    53   26   90 1    
    54   27   28 am   BACKBONE|DICT|INTERRES
    55   27   91 1    
    56   28   29 2    
    57   28   30 1    
    58   30   31 1    
    59   30   32 1    
    60   30   92 1    
    61   31   93 1    
    62   31   94 1    
    63   31   95 1    
    64   32   33 am   BACKBONE|DICT|INTERRES
    65   32   96 1    
    66   33   34 2    
    67   33   35 1    
    68   35   36 1    
    69   35   37 1    
    70   35   97 1    
    71   36   98 1    
    72   36   99 1    
    73   36  100 1    
    74   37   38 am   BACKBONE|DICT|INTERRES
    75   37  101 1    
    76   38   39 2    
    77   38   40 1    
    78   40   41 1    
    79   40   42 1    
    80   40  102 1    
    81   41  103 1    
    82   41  104 1    
    83   41  105 1    
    84   42   43 am   BACKBONE|DICT|INTERRES
    85   42  106 1    
    86   43   44 2    
    87   43   45 1    
    88   45   46 1    
    89   45   49 1    
    90   45  107 1    
    91   46   47 1    
    92   46  108 1    
    93   46  109 1    
    94   47   48 1    
    95   48  110 1    
    96   48  111 1    
    97   49   50 am   BACKBONE|DICT|INTERRES
    98   49  112 1    
    99   50   51 2    
   100   50   52 1    
   101   52   53 1    
   102   52   54 1    
   103   52  113 1    
   104   53  114 1    
   105   53  115 1    
   106   53  116 1    
   107   54   55 am   BACKBONE|DICT|INTERRES
   108   54  117 1    
   109   55   56 2    
   110   55   57 1    
   111   57   58 1    
   112   57   59 1    
   113   57  118 1    
   114   58  119 1    
   115   58  120 1    
   116   58  121 1    
   117   59   60 am   BACKBONE|DICT|INTERRES
   118   59  122 1    
   119   60   61 2    
   120   60   62 1    
   121   62   63 1    
   122   62   64 1    
   123   62  123 1    
   124   63  124 1    
   125   63  125 1    
   126   63  126 1    
   127   64   65 am   BACKBONE|DICT|INTERRES
   128   64  127 1    
   129   65   66 2    
@<TRIPOS>SUBSTRUCTURE
     1 UNK         1 GROUP             0       ****    0 ROOT    
