@<TRIPOS>MOLECULE
3R135
127   129    1
SMALL
USER_CHARGES


@<TRIPOS>ATOM
      1 CA        -79.7909   30.1431  -76.2765 C.3       0 UNK        -0.1998 
      2 C         -79.8623   29.2259  -75.0657 C.2       0 UNK         0.4909 
      3 O         -78.9133   28.4927  -74.8006 O.2       0 UNK        -0.5240 
      4 N         -80.9810   29.2554  -74.3300 N.am      1 UNK        -0.4739 
      5 CA        -81.2276   28.4329  -73.1418 C.3       1 UNK         0.0864 
      6 C6        -82.1776   29.1639  -72.1564 C.3       11 UNK        -0.0881 
      7 S7        -82.1811   28.4257  -70.4860 S.3       11 UNK        -0.2682 
      8 C8        -81.0096   29.4973  -69.5919 C.3       11 UNK         0.0289 
      9 C9        -79.5835   29.3359  -70.0995 C.ar      11 UNK        -0.0687 
     10 C10       -78.9095   28.1229  -69.9175 C.ar      11 UNK        -0.0823 
     11 C11       -77.6044   27.9646  -70.3882 C.ar      11 UNK        -0.0830 
     12 C12       -76.9654   29.0419  -71.0013 C.ar      11 UNK        -0.1021 
     13 C13       -77.6302   30.2479  -71.2278 C.ar      11 UNK        -0.0753 
     14 C14       -78.9419   30.3906  -70.7611 C.ar      11 UNK        -0.0933 
     15 C15       -76.9528   31.3955  -71.9776 C.3       11 UNK         0.0166 
     16 S16       -75.8314   30.8561  -73.3256 S.3       11 UNK        -0.2615 
     17 C17       -74.1660   31.1013  -72.5979 C.3       11 UNK        -0.0865 
     18 CA        -73.1520   29.9352  -72.8084 C.3       10 UNK         0.0862 
     19 C         -73.3503   28.7372  -71.8445 C.2       10 UNK         0.5551 
     20 N         -73.1764   28.9531  -70.5475 N.am      10 UNK        -0.7319 
     21 O         -73.6659   27.6199  -72.2458 O.2       10 UNK        -0.5018 
     22 N         -73.0524   29.4994  -74.2054 N.am      10 UNK        -0.4509 
     23 C         -72.3261   30.1000  -75.1534 C.2       10 UNK         0.4899 
     24 O         -71.6868   31.1379  -74.9701 O.2       10 UNK        -0.4839 
     25 CA        -72.3086   29.4162  -76.5342 C.3       9 UNK         0.0222 
     26 CB        -71.2582   30.0060  -77.4990 C.3       9 UNK        -0.1966 
     27 N         -72.1765   27.9595  -76.4317 N.am      9 UNK        -0.4218 
     28 C         -71.1568   27.2494  -75.9263 C.2       9 UNK         0.5020 
     29 O         -70.1007   27.7428  -75.5277 O.2       9 UNK        -0.5274 
     30 CA        -71.3468   25.7219  -75.8298 C.3       8 UNK         0.0270 
     31 CB        -71.6480   25.3138  -74.3784 C.3       8 UNK        -0.1976 
     32 N         -72.4064   25.2029  -76.7015 N.am      8 UNK        -0.4313 
     33 C         -72.3199   25.1134  -78.0364 C.2       8 UNK         0.5041 
     34 O         -71.3016   25.3803  -78.6757 O.2       8 UNK        -0.5577 
     35 CA        -73.5923   24.6867  -78.7897 C.3       7 UNK         0.0284 
     36 CB        -73.7404   23.1569  -78.7913 C.3       7 UNK        -0.1958 
     37 N         -74.8069   25.3064  -78.2498 N.am      7 UNK        -0.4454 
     38 C         -75.0681   26.6222  -78.2852 C.2       7 UNK         0.5089 
     39 O         -74.3415   27.4504  -78.8332 O.2       7 UNK        -0.5125 
     40 CA        -76.3254   27.1079  -77.5457 C.3       6 UNK         0.0408 
     41 CB        -77.5788   26.9301  -78.4155 C.3       6 UNK        -0.1791 
     42 N         -76.5178   26.4343  -76.2620 N.am      6 UNK        -0.4762 
     43 C         -75.6919   26.5300  -75.2105 C.2       6 UNK         0.5007 
     44 O         -74.6845   27.2355  -75.2019 O.2       6 UNK        -0.5032 
     45 CA        -76.0166   25.6498  -73.9863 C.3       5 UNK         0.0783 
     46 C46       -77.1023   26.3162  -73.1159 C.3       11 UNK        -0.0857 
     47 S47       -77.4429   25.4396  -71.5487 S.3       11 UNK        -0.2512 
     48 C48       -76.8844   26.6270  -70.2790 C.3       11 UNK         0.0225 
     49 N         -76.3964   24.2948  -74.3916 N.am      5 UNK        -0.4615 
     50 C         -75.5847   23.4182  -74.9942 C.2       4 UNK         0.5053 
     51 O         -74.4023   23.6420  -75.2513 O.2       4 UNK        -0.5105 
     52 CA        -76.2146   22.0800  -75.4138 C.3       4 UNK         0.0263 
     53 CB        -76.2638   21.1078  -74.2244 C.3       4 UNK        -0.1981 
     54 N         -77.5598   22.2437  -75.9738 N.am      4 UNK        -0.4224 
     55 C         -77.8207   22.8576  -77.1371 C.2       3 UNK         0.4895 
     56 O         -76.9525   23.3187  -77.8781 O.2       3 UNK        -0.5091 
     57 CA        -79.3036   23.0243  -77.5168 C.3       3 UNK         0.0250 
     58 CB        -79.8522   21.7317  -78.1422 C.3       3 UNK        -0.1996 
     59 N         -80.1642   23.4403  -76.4004 N.am      3 UNK        -0.4254 
     60 C         -79.9920   24.5656  -75.6932 C.2       2 UNK         0.5004 
     61 O         -79.0565   25.3443  -75.8780 O.2       2 UNK        -0.5226 
     62 CA        -81.0043   24.8602  -74.5804 C.3       2 UNK         0.0269 
     63 CB        -80.8287   23.8895  -73.3977 C.3       2 UNK        -0.1926 
     64 N         -80.7993   26.2315  -74.1185 N.am      2 UNK        -0.4687 
     65 C         -81.7146   27.0259  -73.5580 C.2       1 UNK         0.5165 
     66 O         -82.8921   26.6957  -73.4010 O.2       1 UNK        -0.5079 
     67 H67       -80.6873   30.7541  -76.3803 H         1 UNK         0.0900 
     68 H68       -78.9330   30.8093  -76.1880 H         1 UNK         0.0900 
     69 H69       -79.6720   29.5538  -77.1852 H         1 UNK         0.0900 
     70 H70       -81.7449   29.8520  -74.6148 H         1 UNK         0.2959 
     71 H71       -80.2734   28.2930  -72.6276 H         1 UNK         0.1079 
     72 H72       -83.2006   29.1817  -72.5369 H         1 UNK         0.0837 
     73 H73       -81.8824   30.2103  -72.0641 H         1 UNK         0.0837 
     74 H74       -81.3389   30.5350  -69.6641 H         1 UNK         0.0685 
     75 H75       -81.0390   29.2411  -68.5319 H         1 UNK         0.0685 
     76 H76       -79.4115   27.2948  -69.4356 H         1 UNK         0.1434 
     77 H77       -75.9582   28.9151  -71.3573 H         1 UNK         0.1329 
     78 H78       -79.4675   31.3223  -70.9199 H         1 UNK         0.1335 
     79 H79       -77.7171   32.0286  -72.4310 H         1 UNK         0.0680 
     80 H80       -76.4226   32.0276  -71.2651 H         1 UNK         0.0680 
     81 H81       -73.7552   32.0043  -73.0517 H         1 UNK         0.1032 
     82 H82       -74.2546   31.3371  -71.5367 H         1 UNK         0.1032 
     83 H83       -72.1666   30.3217  -72.5393 H         1 UNK         0.0461 
     84 H84       -72.9024   29.8571  -70.1966 H         1 UNK         0.3453 
     85 H85       -73.2946   28.1847  -69.9068 H         1 UNK         0.3453 
     86 H86       -73.5531   28.6400  -74.4238 H         1 UNK         0.2984 
     87 H87       -73.2920   29.5949  -76.9716 H         1 UNK         0.0554 
     88 H88       -71.2877   29.5073  -78.4679 H         1 UNK         0.0847 
     89 H89       -70.2460   29.9143  -77.1042 H         1 UNK         0.0847 
     90 H90       -71.4425   31.0664  -77.6749 H         1 UNK         0.0847 
     91 H91       -73.0192   27.4438  -76.6539 H         1 UNK         0.3141 
     92 H92       -70.4044   25.2567  -76.1262 H         1 UNK         0.0743 
     93 H93       -72.5888   25.7404  -74.0287 H         1 UNK         0.0784 
     94 H94       -71.7138   24.2305  -74.2754 H         1 UNK         0.0784 
     95 H95       -70.8640   25.6579  -73.7026 H         1 UNK         0.0784 
     96 H96       -73.2554   24.8788  -76.2442 H         1 UNK         0.3213 
     97 H97       -73.4867   25.0164  -79.8256 H         1 UNK         0.0855 
     98 H98       -73.8755   22.7612  -77.7846 H         1 UNK         0.0814 
     99 H99       -72.8550   22.6798  -79.2135 H         1 UNK         0.0814 
    100 H100      -74.5949   22.8424  -79.3907 H         1 UNK         0.0814 
    101 H101      -75.4964   24.6844  -77.8368 H         1 UNK         0.3105 
    102 H102      -76.2035   28.1737  -77.3413 H         1 UNK         0.0547 
    103 H103      -77.4748   27.4581  -79.3641 H         1 UNK         0.0837 
    104 H104      -77.7674   25.8805  -78.6424 H         1 UNK         0.0837 
    105 H105      -78.4634   27.3262  -77.9163 H         1 UNK         0.0837 
    106 H106      -77.3751   25.8919  -76.1568 H         1 UNK         0.3020 
    107 H107      -75.1016   25.5776  -73.3938 H         1 UNK         0.1245 
    108 H108      -78.0417   26.3676  -73.6619 H         1 UNK         0.0781 
    109 H109      -76.8224   27.3487  -72.9225 H         1 UNK         0.0781 
    110 H110      -75.8050   26.7611  -70.3697 H         1 UNK         0.0836 
    111 H111      -77.0569   26.1985  -69.2908 H         1 UNK         0.0836 
    112 H112      -77.3617   24.0439  -74.2450 H         1 UNK         0.3022 
    113 H113      -75.5784   21.6419  -76.1859 H         1 UNK         0.0747 
    114 H114      -76.6352   20.1287  -74.5276 H         1 UNK         0.0793 
    115 H115      -75.2684   20.9586  -73.8033 H         1 UNK         0.0793 
    116 H116      -76.9044   21.4775  -73.4227 H         1 UNK         0.0793 
    117 H117      -78.3339   21.8935  -75.4288 H         1 UNK         0.3047 
    118 H118      -79.3534   23.8113  -78.2724 H         1 UNK         0.0822 
    119 H119      -79.8746   20.9104  -77.4249 H         1 UNK         0.0807 
    120 H120      -79.2347   21.4130  -78.9834 H         1 UNK         0.0807 
    121 H121      -80.8640   21.8733  -78.5227 H         1 UNK         0.0807 
    122 H122      -80.9512   22.8438  -76.1878 H         1 UNK         0.2946 
    123 H123      -82.0088   24.7632  -74.9986 H         1 UNK         0.1144 
    124 H124      -81.5439   24.1010  -72.6025 H         1 UNK         0.0793 
    125 H125      -79.8279   23.9550  -72.9691 H         1 UNK         0.0793 
    126 H126      -80.9880   22.8551  -73.7040 H         1 UNK         0.0793 
    127 H127      -79.8911   26.6258  -74.3513 H         1 UNK         0.2896 
@<TRIPOS>BOND
     1    1    2 1    
     2    1   67 1    
     3    1   68 1    
     4    1   69 1    
     5    2    3 2    
     6    2    4 am   BACKBONE|DICT|INTERRES
     7    4    5 1    
     8    4   70 1    
     9    5    6 1    
    10    5   65 1    
    11    5   71 1    
    12    6    7 1    
    13    6   72 1    
    14    6   73 1    
    15    7    8 1    
    16    8    9 1    
    17    8   74 1    
    18    8   75 1    
    19    9   10 ar   
    20    9   14 ar   
    21   10   11 ar   
    22   10   76 1    
    23   11   12 ar   
    24   11   48 1    
    25   12   13 ar   
    26   12   77 1    
    27   13   14 ar   
    28   13   15 1    
    29   14   78 1    
    30   15   16 1    
    31   15   79 1    
    32   15   80 1    
    33   16   17 1    
    34   17   18 1    
    35   17   81 1    
    36   17   82 1    
    37   18   19 1    
    38   18   22 1    
    39   18   83 1    
    40   19   20 am   BACKBONE|DICT|INTERRES
    41   19   21 2    
    42   20   84 1    
    43   20   85 1    
    44   22   23 am   BACKBONE|DICT|INTERRES
    45   22   86 1    
    46   23   24 2    
    47   23   25 1    
    48   25   26 1    
    49   25   27 1    
    50   25   87 1    
    51   26   88 1    
    52   26   89 1    
    53   26   90 1    
    54   27   28 am   BACKBONE|DICT|INTERRES
    55   27   91 1    
    56   28   29 2    
    57   28   30 1    
    58   30   31 1    
    59   30   32 1    
    60   30   92 1    
    61   31   93 1    
    62   31   94 1    
    63   31   95 1    
    64   32   33 am   BACKBONE|DICT|INTERRES
    65   32   96 1    
    66   33   34 2    
    67   33   35 1    
    68   35   36 1    
    69   35   37 1    
    70   35   97 1    
    71   36   98 1    
    72   36   99 1    
    73   36  100 1    
    74   37   38 am   BACKBONE|DICT|INTERRES
    75   37  101 1    
    76   38   39 2    
    77   38   40 1    
    78   40   41 1    
    79   40   42 1    
    80   40  102 1    
    81   41  103 1    
    82   41  104 1    
    83   41  105 1    
    84   42   43 am   BACKBONE|DICT|INTERRES
    85   42  106 1    
    86   43   44 2    
    87   43   45 1    
    88   45   46 1    
    89   45   49 1    
    90   45  107 1    
    91   46   47 1    
    92   46  108 1    
    93   46  109 1    
    94   47   48 1    
    95   48  110 1    
    96   48  111 1    
    97   49   50 am   BACKBONE|DICT|INTERRES
    98   49  112 1    
    99   50   51 2    
   100   50   52 1    
   101   52   53 1    
   102   52   54 1    
   103   52  113 1    
   104   53  114 1    
   105   53  115 1    
   106   53  116 1    
   107   54   55 am   BACKBONE|DICT|INTERRES
   108   54  117 1    
   109   55   56 2    
   110   55   57 1    
   111   57   58 1    
   112   57   59 1    
   113   57  118 1    
   114   58  119 1    
   115   58  120 1    
   116   58  121 1    
   117   59   60 am   BACKBONE|DICT|INTERRES
   118   59  122 1    
   119   60   61 2    
   120   60   62 1    
   121   62   63 1    
   122   62   64 1    
   123   62  123 1    
   124   63  124 1    
   125   63  125 1    
   126   63  126 1    
   127   64   65 am   BACKBONE|DICT|INTERRES
   128   64  127 1    
   129   65   66 2    
@<TRIPOS>SUBSTRUCTURE
     1 UNK         1 GROUP             0       ****    0 ROOT    
