@<TRIPOS>MOLECULE
3R135
127   129    1
SMALL
USER_CHARGES


@<TRIPOS>ATOM
      1 CA        -81.9567   26.1615  -69.5069 C.3       0 UNK        -0.1998 
      2 C         -82.6637   26.3905  -70.8344 C.2       0 UNK         0.4909 
      3 O         -83.7876   25.9234  -71.0195 O.2       0 UNK        -0.5240 
      4 N         -82.0111   27.1035  -71.7616 N.am      1 UNK        -0.4739 
      5 CA        -82.5401   27.4321  -73.0949 C.3       1 UNK         0.0864 
      6 C6        -81.8587   28.6850  -73.7035 C.3       11 UNK        -0.0881 
      7 S7        -81.9648   30.1369  -72.5990 S.3       11 UNK        -0.2682 
      8 C8        -80.4460   31.0603  -73.0258 C.3       11 UNK         0.0289 
      9 C9        -79.1305   30.3112  -72.8026 C.ar      11 UNK        -0.0687 
     10 C10       -78.9949   29.3020  -71.8405 C.ar      11 UNK        -0.0823 
     11 C11       -77.7875   28.6140  -71.6837 C.ar      11 UNK        -0.0830 
     12 C12       -76.6875   28.9862  -72.4640 C.ar      11 UNK        -0.1021 
     13 C13       -76.7953   30.0121  -73.4057 C.ar      11 UNK        -0.0753 
     14 C14       -78.0202   30.6616  -73.5760 C.ar      11 UNK        -0.0933 
     15 C15       -75.5968   30.4193  -74.2486 C.3       11 UNK         0.0166 
     16 S16       -74.6521   31.7613  -73.4619 S.3       11 UNK        -0.2615 
     17 C17       -73.5318   30.8318  -72.3571 C.3       11 UNK        -0.0865 
     18 CA        -72.0832   30.7808  -72.9047 C.3       10 UNK         0.0862 
     19 C         -71.1341   30.0816  -71.8972 C.2       10 UNK         0.5551 
     20 N         -70.3754   30.8454  -71.1235 N.am      10 UNK        -0.7319 
     21 O         -71.1174   28.8581  -71.7801 O.2       10 UNK        -0.5018 
     22 N         -72.0320   30.1364  -74.2224 N.am      10 UNK        -0.4509 
     23 C         -71.0570   30.3073  -75.1208 C.2       10 UNK         0.4899 
     24 O         -70.0901   31.0532  -74.9544 O.2       10 UNK        -0.4839 
     25 CA        -71.2161   29.5172  -76.4331 C.3       9 UNK         0.0222 
     26 CB        -69.9896   29.6265  -77.3644 C.3       9 UNK        -0.1966 
     27 N         -71.5846   28.1149  -76.2061 N.am      9 UNK        -0.4218 
     28 C         -70.8638   27.1768  -75.5662 C.2       9 UNK         0.5020 
     29 O         -69.7576   27.3830  -75.0651 O.2       9 UNK        -0.5274 
     30 CA        -71.4605   25.7578  -75.4677 C.3       8 UNK         0.0270 
     31 CB        -71.8632   25.4363  -74.0185 C.3       8 UNK        -0.1976 
     32 N         -72.6076   25.5463  -76.3558 N.am      8 UNK        -0.4313 
     33 C         -72.5161   25.4171  -77.6877 C.2       8 UNK         0.5041 
     34 O         -71.4436   25.3738  -78.2920 O.2       8 UNK        -0.5577 
     35 CA        -73.8241   25.3477  -78.4975 C.3       7 UNK         0.0284 
     36 CB        -74.0983   23.9001  -78.9357 C.3       7 UNK        -0.1958 
     37 N         -75.0048   25.8796  -77.8075 N.am      7 UNK        -0.4454 
     38 C         -75.1715   27.1496  -77.4094 C.2       7 UNK         0.5089 
     39 O         -74.3253   28.0317  -77.5613 O.2       7 UNK        -0.5125 
     40 CA        -76.4712   27.4666  -76.6458 C.3       6 UNK         0.0408 
     41 CB        -77.6635   27.6012  -77.6045 C.3       6 UNK        -0.1791 
     42 N         -76.7728   26.4734  -75.6108 N.am      6 UNK        -0.4762 
     43 C         -75.9730   26.2007  -74.5677 C.2       6 UNK         0.5007 
     44 O         -74.9173   26.7934  -74.3470 O.2       6 UNK        -0.5032 
     45 CA        -76.3822   25.0207  -73.6677 C.3       5 UNK         0.0783 
     46 C46       -77.4210   25.4235  -72.5883 C.3       11 UNK        -0.0857 
     47 S47       -76.6057   26.1056  -71.1043 S.3       11 UNK        -0.2512 
     48 C48       -77.6934   27.4987  -70.6434 C.3       11 UNK         0.0225 
     49 N         -76.8356   23.8926  -74.4845 N.am      5 UNK        -0.4615 
     50 C         -76.0125   23.0843  -75.1688 C.2       4 UNK         0.5053 
     51 O         -74.7854   23.1681  -75.1287 O.2       4 UNK        -0.5105 
     52 CA        -76.6601   22.0103  -76.0618 C.3       4 UNK         0.0263 
     53 CB        -76.8519   20.7043  -75.2746 C.3       4 UNK        -0.1981 
     54 N         -77.9439   22.4263  -76.6311 N.am      4 UNK        -0.4224 
     55 C         -78.0973   23.4194  -77.5189 C.2       3 UNK         0.4895 
     56 O         -77.1641   24.0604  -77.9969 O.2       3 UNK        -0.5091 
     57 CA        -79.5391   23.8044  -77.8900 C.3       3 UNK         0.0250 
     58 CB        -80.0342   22.9628  -79.0766 C.3       3 UNK        -0.1996 
     59 N         -80.4805   23.6849  -76.7710 N.am      3 UNK        -0.4254 
     60 C         -80.3768   24.3538  -75.6145 C.2       2 UNK         0.5004 
     61 O         -79.4584   25.1361  -75.3507 O.2       2 UNK        -0.5226 
     62 CA        -81.4276   24.0288  -74.5447 C.3       2 UNK         0.0269 
     63 CB        -80.9329   22.8813  -73.6483 C.3       2 UNK        -0.1926 
     64 N         -81.6976   25.1966  -73.7099 N.am      2 UNK        -0.4687 
     65 C         -82.4522   26.2421  -74.0761 C.2       1 UNK         0.5165 
     66 O         -83.0665   26.2926  -75.1431 O.2       1 UNK        -0.5079 
     67 H67       -82.5871   26.4979  -68.6842 H         1 UNK         0.0900 
     68 H68       -81.7534   25.1000  -69.3682 H         1 UNK         0.0900 
     69 H69       -81.0115   26.7002  -69.4481 H         1 UNK         0.0900 
     70 H70       -81.0967   27.4743  -71.5555 H         1 UNK         0.2959 
     71 H71       -83.6035   27.6581  -72.9862 H         1 UNK         0.1079 
     72 H72       -82.3293   28.9541  -74.6513 H         1 UNK         0.0837 
     73 H73       -80.8142   28.4708  -73.9368 H         1 UNK         0.0837 
     74 H74       -80.5239   31.3673  -74.0701 H         1 UNK         0.0685 
     75 H75       -80.4233   31.9772  -72.4357 H         1 UNK         0.0685 
     76 H76       -79.8338   29.0478  -71.2099 H         1 UNK         0.1434 
     77 H77       -75.7444   28.4732  -72.3426 H         1 UNK         0.1329 
     78 H78       -78.1052   31.4516  -74.3098 H         1 UNK         0.1335 
     79 H79       -75.9350   30.7608  -75.2280 H         1 UNK         0.0680 
     80 H80       -74.9493   29.5619  -74.4361 H         1 UNK         0.0680 
     81 H81       -73.5490   31.3249  -71.3832 H         1 UNK         0.1032 
     82 H82       -73.9135   29.8248  -72.1871 H         1 UNK         0.1032 
     83 H83       -71.7458   31.8125  -73.0282 H         1 UNK         0.0461 
     84 H84       -69.7650   30.4082  -70.4508 H         1 UNK         0.3453 
     85 H85       -70.3897   31.8501  -71.2078 H         1 UNK         0.3453 
     86 H86       -72.7616   29.4693  -74.4210 H         1 UNK         0.2984 
     87 H87       -72.0614   29.9672  -76.9561 H         1 UNK         0.0554 
     88 H88       -69.7980   30.6652  -77.6362 H         1 UNK         0.0847 
     89 H89       -70.1445   29.0732  -78.2906 H         1 UNK         0.0847 
     90 H90       -69.0842   29.2437  -76.8924 H         1 UNK         0.0847 
     91 H91       -72.4885   27.8454  -76.5819 H         1 UNK         0.3141 
     92 H92       -70.6771   25.0553  -75.7599 H         1 UNK         0.0743 
     93 H93       -70.9863   25.4199  -73.3700 H         1 UNK         0.0784 
     94 H94       -72.5441   26.1829  -73.6105 H         1 UNK         0.0784 
     95 H95       -72.3433   24.4604  -73.9412 H         1 UNK         0.0784 
     96 H96       -73.5252   25.5677  -75.9297 H         1 UNK         0.3213 
     97 H97       -73.6742   25.9521  -79.3946 H         1 UNK         0.0855 
     98 H98       -74.2960   23.2537  -78.0801 H         1 UNK         0.0814 
     99 H99       -73.2441   23.4824  -79.4705 H         1 UNK         0.0814 
    100 H100      -74.9560   23.8432  -79.6061 H         1 UNK         0.0814 
    101 H101      -75.7802   25.2300  -77.6832 H         1 UNK         0.3105 
    102 H102      -76.3375   28.4268  -76.1469 H         1 UNK         0.0547 
    103 H103      -78.5753   27.8653  -77.0683 H         1 UNK         0.0837 
    104 H104      -77.4819   28.3841  -78.3418 H         1 UNK         0.0837 
    105 H105      -77.8523   26.6779  -78.1515 H         1 UNK         0.0837 
    106 H106      -77.6430   25.9568  -75.7004 H         1 UNK         0.3020 
    107 H107      -75.4748   24.6905  -73.1552 H         1 UNK         0.1245 
    108 H108      -77.9813   24.5474  -72.2588 H         1 UNK         0.0781 
    109 H109      -78.1645   26.1196  -72.9826 H         1 UNK         0.0781 
    110 H110      -77.3262   27.9297  -69.7112 H         1 UNK         0.0836 
    111 H111      -78.6833   27.0956  -70.4263 H         1 UNK         0.0836 
    112 H112      -77.8328   23.8192  -74.6312 H         1 UNK         0.3022 
    113 H113      -75.9753   21.8131  -76.8892 H         1 UNK         0.0747 
    114 H114      -77.2327   19.9075  -75.9138 H         1 UNK         0.0793 
    115 H115      -75.9047   20.3579  -74.8584 H         1 UNK         0.0793 
    116 H116      -77.5464   20.8304  -74.4429 H         1 UNK         0.0793 
    117 H117      -78.7687   21.9484  -76.2994 H         1 UNK         0.3047 
    118 H118      -79.5279   24.8523  -78.1966 H         1 UNK         0.0822 
    119 H119      -79.3571   23.0533  -79.9274 H         1 UNK         0.0807 
    120 H120      -81.0180   23.2906  -79.4131 H         1 UNK         0.0807 
    121 H121      -80.1002   21.9037  -78.8241 H         1 UNK         0.0807 
    122 H122      -81.2563   23.0510  -76.9014 H         1 UNK         0.2946 
    123 H123      -82.3558   23.7245  -75.0342 H         1 UNK         0.1144 
    124 H124      -81.6710   22.6288  -72.8866 H         1 UNK         0.0793 
    125 H125      -80.0019   23.1350  -73.1398 H         1 UNK         0.0793 
    126 H126      -80.7511   21.9770  -74.2306 H         1 UNK         0.0793 
    127 H127      -81.2085   25.2525  -72.8297 H         1 UNK         0.2896 
@<TRIPOS>BOND
     1    1    2 1    
     2    1   67 1    
     3    1   68 1    
     4    1   69 1    
     5    2    3 2    
     6    2    4 am   BACKBONE|DICT|INTERRES
     7    4    5 1    
     8    4   70 1    
     9    5    6 1    
    10    5   65 1    
    11    5   71 1    
    12    6    7 1    
    13    6   72 1    
    14    6   73 1    
    15    7    8 1    
    16    8    9 1    
    17    8   74 1    
    18    8   75 1    
    19    9   10 ar   
    20    9   14 ar   
    21   10   11 ar   
    22   10   76 1    
    23   11   12 ar   
    24   11   48 1    
    25   12   13 ar   
    26   12   77 1    
    27   13   14 ar   
    28   13   15 1    
    29   14   78 1    
    30   15   16 1    
    31   15   79 1    
    32   15   80 1    
    33   16   17 1    
    34   17   18 1    
    35   17   81 1    
    36   17   82 1    
    37   18   19 1    
    38   18   22 1    
    39   18   83 1    
    40   19   20 am   BACKBONE|DICT|INTERRES
    41   19   21 2    
    42   20   84 1    
    43   20   85 1    
    44   22   23 am   BACKBONE|DICT|INTERRES
    45   22   86 1    
    46   23   24 2    
    47   23   25 1    
    48   25   26 1    
    49   25   27 1    
    50   25   87 1    
    51   26   88 1    
    52   26   89 1    
    53   26   90 1    
    54   27   28 am   BACKBONE|DICT|INTERRES
    55   27   91 1    
    56   28   29 2    
    57   28   30 1    
    58   30   31 1    
    59   30   32 1    
    60   30   92 1    
    61   31   93 1    
    62   31   94 1    
    63   31   95 1    
    64   32   33 am   BACKBONE|DICT|INTERRES
    65   32   96 1    
    66   33   34 2    
    67   33   35 1    
    68   35   36 1    
    69   35   37 1    
    70   35   97 1    
    71   36   98 1    
    72   36   99 1    
    73   36  100 1    
    74   37   38 am   BACKBONE|DICT|INTERRES
    75   37  101 1    
    76   38   39 2    
    77   38   40 1    
    78   40   41 1    
    79   40   42 1    
    80   40  102 1    
    81   41  103 1    
    82   41  104 1    
    83   41  105 1    
    84   42   43 am   BACKBONE|DICT|INTERRES
    85   42  106 1    
    86   43   44 2    
    87   43   45 1    
    88   45   46 1    
    89   45   49 1    
    90   45  107 1    
    91   46   47 1    
    92   46  108 1    
    93   46  109 1    
    94   47   48 1    
    95   48  110 1    
    96   48  111 1    
    97   49   50 am   BACKBONE|DICT|INTERRES
    98   49  112 1    
    99   50   51 2    
   100   50   52 1    
   101   52   53 1    
   102   52   54 1    
   103   52  113 1    
   104   53  114 1    
   105   53  115 1    
   106   53  116 1    
   107   54   55 am   BACKBONE|DICT|INTERRES
   108   54  117 1    
   109   55   56 2    
   110   55   57 1    
   111   57   58 1    
   112   57   59 1    
   113   57  118 1    
   114   58  119 1    
   115   58  120 1    
   116   58  121 1    
   117   59   60 am   BACKBONE|DICT|INTERRES
   118   59  122 1    
   119   60   61 2    
   120   60   62 1    
   121   62   63 1    
   122   62   64 1    
   123   62  123 1    
   124   63  124 1    
   125   63  125 1    
   126   63  126 1    
   127   64   65 am   BACKBONE|DICT|INTERRES
   128   64  127 1    
   129   65   66 2    
@<TRIPOS>SUBSTRUCTURE
     1 UNK         1 GROUP             0       ****    0 ROOT    
