@<TRIPOS>MOLECULE
3R135
127   129    1
SMALL
USER_CHARGES


@<TRIPOS>ATOM
      1 CA        -77.0756   26.5968  -72.9661 C.3       0 UNK        -0.1998 
      2 C         -77.8515   25.9428  -71.8349 C.2       0 UNK         0.4909 
      3 O         -77.4412   24.8954  -71.3363 O.2       0 UNK        -0.5240 
      4 N         -78.9788   26.5482  -71.4371 N.am      1 UNK        -0.4739 
      5 CA        -79.8179   26.1678  -70.2869 C.3       1 UNK         0.0864 
      6 C6        -80.8280   27.2881  -69.9317 C.3       11 UNK        -0.0881 
      7 S7        -80.0130   28.8685  -69.5147 S.3       11 UNK        -0.2682 
      8 C8        -80.7730   30.0202  -70.7017 C.3       11 UNK         0.0289 
      9 C9        -80.0378   30.0428  -72.0343 C.ar      11 UNK        -0.0687 
     10 C10       -80.4360   29.2074  -73.0841 C.ar      11 UNK        -0.0823 
     11 C11       -79.7969   29.2660  -74.3282 C.ar      11 UNK        -0.0830 
     12 C12       -78.7629   30.1914  -74.5069 C.ar      11 UNK        -0.1021 
     13 C13       -78.3288   31.0080  -73.4621 C.ar      11 UNK        -0.0753 
     14 C14       -78.9736   30.9301  -72.2254 C.ar      11 UNK        -0.0933 
     15 C15       -77.1711   31.9795  -73.6775 C.3       11 UNK         0.0166 
     16 S16       -75.7224   31.1919  -74.4663 S.3       11 UNK        -0.2615 
     17 C17       -75.2988   29.9231  -73.2276 C.3       11 UNK        -0.0865 
     18 CA        -73.7803   29.8670  -72.9285 C.3       10 UNK         0.0862 
     19 C         -73.5012   29.1127  -71.5924 C.2       10 UNK         0.5551 
     20 N         -72.7399   28.0257  -71.5669 N.am      10 UNK        -0.7319 
     21 O         -73.9856   29.5338  -70.5451 O.2       10 UNK        -0.5018 
     22 N         -73.0316   29.3592  -74.0900 N.am      10 UNK        -0.4509 
     23 C         -71.7243   29.5610  -74.3004 C.2       10 UNK         0.4899 
     24 O         -71.0276   30.3009  -73.6036 O.2       10 UNK        -0.4839 
     25 CA        -71.0892   28.7849  -75.4750 C.3       9 UNK         0.0222 
     26 CB        -69.5509   28.7126  -75.3798 C.3       9 UNK        -0.1966 
     27 N         -71.6534   27.4399  -75.6598 N.am      9 UNK        -0.4218 
     28 C         -71.7356   26.4588  -74.7448 C.2       9 UNK         0.5020 
     29 O         -71.2841   26.5583  -73.6036 O.2       9 UNK        -0.5274 
     30 CA        -72.4793   25.1675  -75.1320 C.3       8 UNK         0.0270 
     31 CB        -73.5966   24.8598  -74.1209 C.3       8 UNK        -0.1976 
     32 N         -73.0743   25.2513  -76.4664 N.am      8 UNK        -0.4313 
     33 C         -72.5832   24.6666  -77.5678 C.2       8 UNK         0.5041 
     34 O         -71.6116   23.9099  -77.5700 O.2       8 UNK        -0.5577 
     35 CA        -73.2758   25.0011  -78.9036 C.3       7 UNK         0.0284 
     36 CB        -74.3129   23.9204  -79.2440 C.3       7 UNK        -0.1958 
     37 N         -73.9197   26.3207  -78.9149 N.am      7 UNK        -0.4454 
     38 C         -73.2676   27.4837  -78.7551 C.2       7 UNK         0.5089 
     39 O         -72.0449   27.5665  -78.6471 O.2       7 UNK        -0.5125 
     40 CA        -74.1047   28.7660  -78.6111 C.3       6 UNK         0.0408 
     41 CB        -74.1392   29.5353  -79.9402 C.3       6 UNK        -0.1791 
     42 N         -75.4745   28.5380  -78.1492 N.am      6 UNK        -0.4762 
     43 C         -75.8357   27.9787  -76.9844 C.2       6 UNK         0.5007 
     44 O         -75.0305   27.5782  -76.1386 O.2       6 UNK        -0.5032 
     45 CA        -77.3505   27.8042  -76.7392 C.3       5 UNK         0.0783 
     46 C46       -78.2310   28.7757  -77.5831 C.3       11 UNK        -0.0857 
     47 S47       -80.0127   28.8967  -77.1526 S.3       11 UNK        -0.2512 
     48 C48       -80.2251   28.2955  -75.4332 C.3       11 UNK         0.0225 
     49 N         -77.7682   26.4097  -76.9145 N.am      5 UNK        -0.4615 
     50 C         -77.6183   25.6337  -77.9943 C.2       4 UNK         0.5053 
     51 O         -76.9265   25.9383  -78.9683 O.2       4 UNK        -0.5105 
     52 CA        -78.4007   24.3024  -77.9846 C.3       4 UNK         0.0263 
     53 CB        -78.2195   23.4961  -79.2849 C.3       4 UNK        -0.1981 
     54 N         -78.0983   23.4344  -76.8406 N.am      4 UNK        -0.4224 
     55 C         -78.4736   23.6426  -75.5716 C.2       3 UNK         0.4895 
     56 O         -79.0582   24.6599  -75.1855 O.2       3 UNK        -0.5091 
     57 CA        -78.1030   22.5402  -74.5650 C.3       3 UNK         0.0250 
     58 CB        -76.6108   22.6114  -74.2063 C.3       3 UNK        -0.1996 
     59 N         -78.8853   22.6607  -73.3353 N.am      3 UNK        -0.4254 
     60 C         -80.1892   22.3645  -73.2221 C.2       2 UNK         0.5004 
     61 O         -80.8545   21.8185  -74.1029 O.2       2 UNK        -0.5226 
     62 CA        -80.8633   22.7838  -71.9108 C.3       2 UNK         0.0269 
     63 CB        -80.5608   21.7266  -70.8253 C.3       2 UNK        -0.1926 
     64 N         -80.3779   24.1220  -71.5562 N.am      2 UNK        -0.4687 
     65 C         -80.5402   24.8024  -70.4162 C.2       1 UNK         0.5165 
     66 O         -81.2290   24.4015  -69.4770 O.2       1 UNK        -0.5079 
     67 H67       -76.0523   26.7897  -72.6460 H         1 UNK         0.0900 
     68 H68       -77.5267   27.5420  -73.2651 H         1 UNK         0.0900 
     69 H69       -77.0425   25.9425  -73.8357 H         1 UNK         0.0900 
     70 H70       -79.2466   27.4155  -71.8811 H         1 UNK         0.2959 
     71 H71       -79.1435   26.0517  -69.4355 H         1 UNK         0.1079 
     72 H72       -81.5384   27.4308  -70.7472 H         1 UNK         0.0837 
     73 H73       -81.4260   27.0064  -69.0626 H         1 UNK         0.0837 
     74 H74       -81.8263   29.7750  -70.8456 H         1 UNK         0.0685 
     75 H75       -80.7604   31.0199  -70.2646 H         1 UNK         0.0685 
     76 H76       -81.2535   28.5152  -72.9341 H         1 UNK         0.1434 
     77 H77       -78.2642   30.2841  -75.4553 H         1 UNK         0.1329 
     78 H78       -78.6577   31.5695  -71.4123 H         1 UNK         0.1335 
     79 H79       -76.8577   32.4270  -72.7329 H         1 UNK         0.0680 
     80 H80       -77.5139   32.7990  -74.3104 H         1 UNK         0.0680 
     81 H81       -75.6473   28.9596  -73.5962 H         1 UNK         0.1032 
     82 H82       -75.8668   30.1234  -72.3168 H         1 UNK         0.1032 
     83 H83       -73.4481   30.8913  -72.7479 H         1 UNK         0.0461 
     84 H84       -72.2910   27.6647  -72.4029 H         1 UNK         0.3453 
     85 H85       -72.5773   27.5689  -70.6843 H         1 UNK         0.3453 
     86 H86       -73.5372   28.7426  -74.7125 H         1 UNK         0.2984 
     87 H87       -71.3382   29.3454  -76.3771 H         1 UNK         0.0554 
     88 H88       -69.1257   28.1838  -76.2328 H         1 UNK         0.0847 
     89 H89       -69.2262   28.2020  -74.4724 H         1 UNK         0.0847 
     90 H90       -69.1103   29.7102  -75.3674 H         1 UNK         0.0847 
     91 H91       -72.0027   27.2500  -76.5919 H         1 UNK         0.3141 
     92 H92       -71.7494   24.3567  -75.0882 H         1 UNK         0.0743 
     93 H93       -74.3769   25.6212  -74.1363 H         1 UNK         0.0784 
     94 H94       -74.0559   23.8971  -74.3383 H         1 UNK         0.0784 
     95 H95       -73.2109   24.8052  -73.1019 H         1 UNK         0.0784 
     96 H96       -73.8687   25.8769  -76.5564 H         1 UNK         0.3213 
     97 H97       -72.5097   25.0015  -79.6818 H         1 UNK         0.0855 
     98 H98       -75.0737   23.8395  -78.4674 H         1 UNK         0.0814 
     99 H99       -73.8395   22.9422  -79.3378 H         1 UNK         0.0814 
    100 H100      -74.8149   24.1305  -80.1887 H         1 UNK         0.0814 
    101 H101      -74.9336   26.3355  -78.9894 H         1 UNK         0.3105 
    102 H102      -73.6112   29.3933  -77.8658 H         1 UNK         0.0547 
    103 H103      -74.6476   28.9693  -80.7218 H         1 UNK         0.0837 
    104 H104      -74.6475   30.4936  -79.8325 H         1 UNK         0.0837 
    105 H105      -73.1294   29.7461  -80.2956 H         1 UNK         0.0837 
    106 H106      -76.2059   28.7834  -78.8007 H         1 UNK         0.3020 
    107 H107      -77.4783   28.0395  -75.6846 H         1 UNK         0.1245 
    108 H108      -77.8311   29.7905  -77.5428 H         1 UNK         0.0781 
    109 H109      -78.1898   28.4965  -78.6375 H         1 UNK         0.0781 
    110 H110      -79.7263   27.3384  -75.2923 H         1 UNK         0.0836 
    111 H111      -81.2887   28.0832  -75.3137 H         1 UNK         0.0836 
    112 H112      -78.3100   26.0045  -76.1542 H         1 UNK         0.3022 
    113 H113      -79.4566   24.5745  -77.9219 H         1 UNK         0.0747 
    114 H114      -78.8713   22.6225  -79.3031 H         1 UNK         0.0793 
    115 H115      -78.4701   24.0991  -80.1588 H         1 UNK         0.0793 
    116 H116      -77.1938   23.1506  -79.4114 H         1 UNK         0.0793 
    117 H117      -77.5896   22.5885  -77.0540 H         1 UNK         0.3047 
    118 H118      -78.3147   21.5699  -75.0197 H         1 UNK         0.0822 
    119 H119      -76.3282   21.8047  -73.5296 H         1 UNK         0.0807 
    120 H120      -76.3603   23.5546  -73.7202 H         1 UNK         0.0807 
    121 H121      -75.9834   22.5202  -75.0939 H         1 UNK         0.0807 
    122 H122      -78.4236   23.1063  -72.5526 H         1 UNK         0.2946 
    123 H123      -81.9408   22.8367  -72.0782 H         1 UNK         0.1144 
    124 H124      -81.1699   21.8735  -69.9341 H         1 UNK         0.0793 
    125 H125      -79.5129   21.7437  -70.5235 H         1 UNK         0.0793 
    126 H126      -80.7798   20.7207  -71.1870 H         1 UNK         0.0793 
    127 H127      -79.8300   24.5751  -72.2761 H         1 UNK         0.2896 
@<TRIPOS>BOND
     1    1    2 1    
     2    1   67 1    
     3    1   68 1    
     4    1   69 1    
     5    2    3 2    
     6    2    4 am   BACKBONE|DICT|INTERRES
     7    4    5 1    
     8    4   70 1    
     9    5    6 1    
    10    5   65 1    
    11    5   71 1    
    12    6    7 1    
    13    6   72 1    
    14    6   73 1    
    15    7    8 1    
    16    8    9 1    
    17    8   74 1    
    18    8   75 1    
    19    9   10 ar   
    20    9   14 ar   
    21   10   11 ar   
    22   10   76 1    
    23   11   12 ar   
    24   11   48 1    
    25   12   13 ar   
    26   12   77 1    
    27   13   14 ar   
    28   13   15 1    
    29   14   78 1    
    30   15   16 1    
    31   15   79 1    
    32   15   80 1    
    33   16   17 1    
    34   17   18 1    
    35   17   81 1    
    36   17   82 1    
    37   18   19 1    
    38   18   22 1    
    39   18   83 1    
    40   19   20 am   BACKBONE|DICT|INTERRES
    41   19   21 2    
    42   20   84 1    
    43   20   85 1    
    44   22   23 am   BACKBONE|DICT|INTERRES
    45   22   86 1    
    46   23   24 2    
    47   23   25 1    
    48   25   26 1    
    49   25   27 1    
    50   25   87 1    
    51   26   88 1    
    52   26   89 1    
    53   26   90 1    
    54   27   28 am   BACKBONE|DICT|INTERRES
    55   27   91 1    
    56   28   29 2    
    57   28   30 1    
    58   30   31 1    
    59   30   32 1    
    60   30   92 1    
    61   31   93 1    
    62   31   94 1    
    63   31   95 1    
    64   32   33 am   BACKBONE|DICT|INTERRES
    65   32   96 1    
    66   33   34 2    
    67   33   35 1    
    68   35   36 1    
    69   35   37 1    
    70   35   97 1    
    71   36   98 1    
    72   36   99 1    
    73   36  100 1    
    74   37   38 am   BACKBONE|DICT|INTERRES
    75   37  101 1    
    76   38   39 2    
    77   38   40 1    
    78   40   41 1    
    79   40   42 1    
    80   40  102 1    
    81   41  103 1    
    82   41  104 1    
    83   41  105 1    
    84   42   43 am   BACKBONE|DICT|INTERRES
    85   42  106 1    
    86   43   44 2    
    87   43   45 1    
    88   45   46 1    
    89   45   49 1    
    90   45  107 1    
    91   46   47 1    
    92   46  108 1    
    93   46  109 1    
    94   47   48 1    
    95   48  110 1    
    96   48  111 1    
    97   49   50 am   BACKBONE|DICT|INTERRES
    98   49  112 1    
    99   50   51 2    
   100   50   52 1    
   101   52   53 1    
   102   52   54 1    
   103   52  113 1    
   104   53  114 1    
   105   53  115 1    
   106   53  116 1    
   107   54   55 am   BACKBONE|DICT|INTERRES
   108   54  117 1    
   109   55   56 2    
   110   55   57 1    
   111   57   58 1    
   112   57   59 1    
   113   57  118 1    
   114   58  119 1    
   115   58  120 1    
   116   58  121 1    
   117   59   60 am   BACKBONE|DICT|INTERRES
   118   59  122 1    
   119   60   61 2    
   120   60   62 1    
   121   62   63 1    
   122   62   64 1    
   123   62  123 1    
   124   63  124 1    
   125   63  125 1    
   126   63  126 1    
   127   64   65 am   BACKBONE|DICT|INTERRES
   128   64  127 1    
   129   65   66 2    
@<TRIPOS>SUBSTRUCTURE
     1 UNK         1 GROUP             0       ****    0 ROOT    
