@<TRIPOS>MOLECULE
3R135
127   129    1
SMALL
USER_CHARGES


@<TRIPOS>ATOM
      1 CA        -83.9363   27.1780  -70.1512 C.3       0 UNK        -0.1998 
      2 C         -83.1167   27.2530  -71.4302 C.2       0 UNK         0.4909 
      3 O         -81.9157   26.9945  -71.3901 O.2       0 UNK        -0.5240 
      4 N         -83.7702   27.5892  -72.5517 N.am      1 UNK        -0.4739 
      5 CA        -83.2734   27.7812  -73.9274 C.3       1 UNK         0.0864 
      6 C6        -82.4685   29.0989  -74.1358 C.3       11 UNK        -0.0881 
      7 S7        -80.6710   29.0296  -73.8249 S.3       11 UNK        -0.2682 
      8 C8        -80.5193   29.9530  -72.2640 C.3       11 UNK         0.0289 
      9 C9        -79.1214   29.7786  -71.6959 C.ar      11 UNK        -0.0687 
     10 C10       -78.7732   28.5740  -71.0782 C.ar      11 UNK        -0.0823 
     11 C11       -77.4621   28.3490  -70.6536 C.ar      11 UNK        -0.0830 
     12 C12       -76.5123   29.3650  -70.7889 C.ar      11 UNK        -0.1021 
     13 C13       -76.8485   30.5740  -71.4027 C.ar      11 UNK        -0.0753 
     14 C14       -78.1575   30.7804  -71.8495 C.ar      11 UNK        -0.0933 
     15 C15       -75.7774   31.6267  -71.6337 C.3       11 UNK         0.0166 
     16 S16       -74.9648   31.3708  -73.2472 S.3       11 UNK        -0.2615 
     17 C17       -73.1887   31.4239  -72.8112 C.3       11 UNK        -0.0865 
     18 CA        -72.4579   30.0594  -72.9516 C.3       10 UNK         0.0862 
     19 C         -72.8989   29.0057  -71.8991 C.2       10 UNK         0.5551 
     20 N         -73.3103   27.8039  -72.2844 N.am      10 UNK        -0.7319 
     21 O         -72.8331   29.2738  -70.7021 O.2       10 UNK        -0.5018 
     22 N         -72.4321   29.5625  -74.3368 N.am      10 UNK        -0.4509 
     23 C         -71.5465   29.9497  -75.2616 C.2       10 UNK         0.4899 
     24 O         -70.6926   30.8185  -75.0722 O.2       10 UNK        -0.4839 
     25 CA        -71.6254   29.2289  -76.6200 C.3       9 UNK         0.0222 
     26 CB        -70.4955   29.6309  -77.5913 C.3       9 UNK        -0.1966 
     27 N         -71.6943   27.7707  -76.4767 N.am      9 UNK        -0.4218 
     28 C         -70.8024   26.9490  -75.9002 C.2       9 UNK         0.5020 
     29 O         -69.7312   27.3224  -75.4200 O.2       9 UNK        -0.5274 
     30 CA        -71.1600   25.4493  -75.8316 C.3       8 UNK         0.0270 
     31 CB        -71.5036   25.0441  -74.3885 C.3       8 UNK        -0.1976 
     32 N         -72.2673   25.0633  -76.7122 N.am      8 UNK        -0.4313 
     33 C         -72.1872   24.9807  -78.0480 C.2       8 UNK         0.5041 
     34 O         -71.1411   25.1234  -78.6819 O.2       8 UNK        -0.5577 
     35 CA        -73.5043   24.7463  -78.8080 C.3       7 UNK         0.0284 
     36 CB        -73.8462   23.2487  -78.8579 C.3       7 UNK        -0.1958 
     37 N         -74.6299   25.4936  -78.2371 N.am      7 UNK        -0.4454 
     38 C         -74.7161   26.8312  -78.1865 C.2       7 UNK         0.5089 
     39 O         -73.8771   27.5898  -78.6696 O.2       7 UNK        -0.5125 
     40 CA        -75.9043   27.4274  -77.4151 C.3       6 UNK         0.0408 
     41 CB        -77.1705   27.4582  -78.2847 C.3       6 UNK        -0.1791 
     42 N         -76.1713   26.7066  -76.1703 N.am      6 UNK        -0.4762 
     43 C         -75.3574   26.6959  -75.1037 C.2       6 UNK         0.5007 
     44 O         -74.3075   27.3384  -75.0241 O.2       6 UNK        -0.5032 
     45 CA        -75.7792   25.7959  -73.9275 C.3       5 UNK         0.0783 
     46 C46       -76.7368   26.5753  -73.0046 C.3       11 UNK        -0.0857 
     47 S47       -77.1826   25.6855  -71.4693 S.3       11 UNK        -0.2512 
     48 C48       -77.0357   26.9691  -70.1680 C.3       11 UNK         0.0225 
     49 N         -76.3433   24.5283  -74.3964 N.am      5 UNK        -0.4615 
     50 C         -75.6315   23.5797  -75.0206 C.2       4 UNK         0.5053 
     51 O         -74.4243   23.6686  -75.2441 O.2       4 UNK        -0.5105 
     52 CA        -76.4041   22.3487  -75.5226 C.3       4 UNK         0.0263 
     53 CB        -76.5878   21.3276  -74.3890 C.3       4 UNK        -0.1981 
     54 N         -77.7095   22.6898  -76.0938 N.am      4 UNK        -0.4224 
     55 C         -77.8910   23.4681  -77.1712 C.2       3 UNK         0.4895 
     56 O         -76.9689   23.9428  -77.8322 O.2       3 UNK        -0.5091 
     57 CA        -79.3397   23.8064  -77.5611 C.3       3 UNK         0.0250 
     58 CB        -79.8508   22.8256  -78.6280 C.3       3 UNK        -0.1996 
     59 N         -80.2665   23.8214  -76.4246 N.am      3 UNK        -0.4254 
     60 C         -80.2092   24.6907  -75.4058 C.2       2 UNK         0.5004 
     61 O         -79.3484   25.5676  -75.2991 O.2       2 UNK        -0.5226 
     62 CA        -81.2456   24.4903  -74.2881 C.3       2 UNK         0.0269 
     63 CB        -80.5887   23.8226  -73.0688 C.3       2 UNK        -0.1926 
     64 N         -81.8705   25.7415  -73.8612 N.am      2 UNK        -0.4687 
     65 C         -82.6549   26.5306  -74.6043 C.2       1 UNK         0.5165 
     66 O         -82.9478   26.2788  -75.7749 O.2       1 UNK        -0.5079 
     67 H67       -84.9835   27.4286  -70.3194 H         1 UNK         0.0900 
     68 H68       -83.8904   26.1717  -69.7358 H         1 UNK         0.0900 
     69 H69       -83.5368   27.8705  -69.4108 H         1 UNK         0.0900 
     70 H70       -84.7664   27.7397  -72.4679 H         1 UNK         0.2959 
     71 H71       -84.2015   27.9329  -74.4819 H         1 UNK         0.1079 
     72 H72       -82.9095   29.9041  -73.5462 H         1 UNK         0.0837 
     73 H73       -82.5837   29.4157  -75.1739 H         1 UNK         0.0837 
     74 H74       -80.7392   31.0067  -72.4420 H         1 UNK         0.0685 
     75 H75       -81.2551   29.5976  -71.5426 H         1 UNK         0.0685 
     76 H76       -79.5033   27.7798  -71.0025 H         1 UNK         0.1434 
     77 H77       -75.4925   29.1921  -70.4758 H         1 UNK         0.1329 
     78 H78       -78.4140   31.7035  -72.3510 H         1 UNK         0.1335 
     79 H79       -76.2153   32.6256  -71.6081 H         1 UNK         0.0680 
     80 H80       -75.0530   31.5896  -70.8192 H         1 UNK         0.0680 
     81 H81       -72.7124   32.1547  -73.4663 H         1 UNK         0.1032 
     82 H82       -73.0531   31.8232  -71.8051 H         1 UNK         0.1032 
     83 H83       -71.4177   30.2443  -72.6754 H         1 UNK         0.0461 
     84 H84       -73.4127   27.5775  -73.2635 H         1 UNK         0.3453 
     85 H85       -73.5569   27.1316  -71.5770 H         1 UNK         0.3453 
     86 H86       -73.1191   28.8554  -74.5775 H         1 UNK         0.2984 
     87 H87       -72.5704   29.5344  -77.0712 H         1 UNK         0.0554 
     88 H88       -70.6026   29.1264  -78.5516 H         1 UNK         0.0847 
     89 H89       -69.5104   29.3874  -77.1920 H         1 UNK         0.0847 
     90 H90       -70.5112   30.7039  -77.7858 H         1 UNK         0.0847 
     91 H91       -72.5470   27.3528  -76.8260 H         1 UNK         0.3141 
     92 H92       -70.2724   24.8920  -76.1380 H         1 UNK         0.0743 
     93 H93       -72.3969   25.5537  -74.0289 H         1 UNK         0.0784 
     94 H94       -71.6775   23.9708  -74.3091 H         1 UNK         0.0784 
     95 H95       -70.6896   25.2919  -73.7059 H         1 UNK         0.0784 
     96 H96       -73.1505   24.8373  -76.2629 H         1 UNK         0.3213 
     97 H97       -73.3615   25.0976  -79.8321 H         1 UNK         0.0855 
     98 H98       -74.0175   22.8395  -77.8621 H         1 UNK         0.0814 
     99 H99       -73.0342   22.6781  -79.3104 H         1 UNK         0.0814 
    100 H100      -74.7418   23.0662  -79.4522 H         1 UNK         0.0814 
    101 H101      -75.4102   24.9442  -77.8812 H         1 UNK         0.3105 
    102 H102      -75.6501   28.4570  -77.1540 H         1 UNK         0.0547 
    103 H103      -77.0065   28.0496  -79.1864 H         1 UNK         0.0837 
    104 H104      -77.4720   26.4604  -78.6030 H         1 UNK         0.0837 
    105 H105      -78.0083   27.9070  -77.7507 H         1 UNK         0.0837 
    106 H106      -77.0187   26.1549  -76.1315 H         1 UNK         0.3020 
    107 H107      -74.8767   25.5611  -73.3594 H         1 UNK         0.1245 
    108 H108      -77.6618   26.8330  -73.5252 H         1 UNK         0.0781 
    109 H109      -76.2623   27.5222  -72.7498 H         1 UNK         0.0781 
    110 H110      -76.0032   26.9888  -69.8159 H         1 UNK         0.0836 
    111 H111      -77.6460   26.6807  -69.3112 H         1 UNK         0.0836 
    112 H112      -77.3388   24.4084  -74.2757 H         1 UNK         0.3022 
    113 H113      -75.8080   21.8829  -76.3102 H         1 UNK         0.0747 
    114 H114      -77.0592   20.4134  -74.7504 H         1 UNK         0.0793 
    115 H115      -75.6251   21.0454  -73.9600 H         1 UNK         0.0793 
    116 H116      -77.2010   21.7254  -73.5792 H         1 UNK         0.0793 
    117 H117      -78.5254   22.3328  -75.6194 H         1 UNK         0.3047 
    118 H118      -79.3327   24.8088  -77.9944 H         1 UNK         0.0822 
    119 H119      -79.9050   21.8046  -78.2479 H         1 UNK         0.0807 
    120 H120      -79.1897   22.8151  -79.4960 H         1 UNK         0.0807 
    121 H121      -80.8426   23.1062  -78.9833 H         1 UNK         0.0807 
    122 H122      -80.9998   23.1266  -76.4342 H         1 UNK         0.2946 
    123 H123      -82.0409   23.8379  -74.6550 H         1 UNK         0.1144 
    124 H124      -80.1271   22.8720  -73.3388 H         1 UNK         0.0793 
    125 H125      -81.3203   23.6170  -72.2871 H         1 UNK         0.0793 
    126 H126      -79.8107   24.4546  -72.6380 H         1 UNK         0.0793 
    127 H127      -81.6692   26.0659  -72.9169 H         1 UNK         0.2896 
@<TRIPOS>BOND
     1    1    2 1    
     2    1   67 1    
     3    1   68 1    
     4    1   69 1    
     5    2    3 2    
     6    2    4 am   BACKBONE|DICT|INTERRES
     7    4    5 1    
     8    4   70 1    
     9    5    6 1    
    10    5   65 1    
    11    5   71 1    
    12    6    7 1    
    13    6   72 1    
    14    6   73 1    
    15    7    8 1    
    16    8    9 1    
    17    8   74 1    
    18    8   75 1    
    19    9   10 ar   
    20    9   14 ar   
    21   10   11 ar   
    22   10   76 1    
    23   11   12 ar   
    24   11   48 1    
    25   12   13 ar   
    26   12   77 1    
    27   13   14 ar   
    28   13   15 1    
    29   14   78 1    
    30   15   16 1    
    31   15   79 1    
    32   15   80 1    
    33   16   17 1    
    34   17   18 1    
    35   17   81 1    
    36   17   82 1    
    37   18   19 1    
    38   18   22 1    
    39   18   83 1    
    40   19   20 am   BACKBONE|DICT|INTERRES
    41   19   21 2    
    42   20   84 1    
    43   20   85 1    
    44   22   23 am   BACKBONE|DICT|INTERRES
    45   22   86 1    
    46   23   24 2    
    47   23   25 1    
    48   25   26 1    
    49   25   27 1    
    50   25   87 1    
    51   26   88 1    
    52   26   89 1    
    53   26   90 1    
    54   27   28 am   BACKBONE|DICT|INTERRES
    55   27   91 1    
    56   28   29 2    
    57   28   30 1    
    58   30   31 1    
    59   30   32 1    
    60   30   92 1    
    61   31   93 1    
    62   31   94 1    
    63   31   95 1    
    64   32   33 am   BACKBONE|DICT|INTERRES
    65   32   96 1    
    66   33   34 2    
    67   33   35 1    
    68   35   36 1    
    69   35   37 1    
    70   35   97 1    
    71   36   98 1    
    72   36   99 1    
    73   36  100 1    
    74   37   38 am   BACKBONE|DICT|INTERRES
    75   37  101 1    
    76   38   39 2    
    77   38   40 1    
    78   40   41 1    
    79   40   42 1    
    80   40  102 1    
    81   41  103 1    
    82   41  104 1    
    83   41  105 1    
    84   42   43 am   BACKBONE|DICT|INTERRES
    85   42  106 1    
    86   43   44 2    
    87   43   45 1    
    88   45   46 1    
    89   45   49 1    
    90   45  107 1    
    91   46   47 1    
    92   46  108 1    
    93   46  109 1    
    94   47   48 1    
    95   48  110 1    
    96   48  111 1    
    97   49   50 am   BACKBONE|DICT|INTERRES
    98   49  112 1    
    99   50   51 2    
   100   50   52 1    
   101   52   53 1    
   102   52   54 1    
   103   52  113 1    
   104   53  114 1    
   105   53  115 1    
   106   53  116 1    
   107   54   55 am   BACKBONE|DICT|INTERRES
   108   54  117 1    
   109   55   56 2    
   110   55   57 1    
   111   57   58 1    
   112   57   59 1    
   113   57  118 1    
   114   58  119 1    
   115   58  120 1    
   116   58  121 1    
   117   59   60 am   BACKBONE|DICT|INTERRES
   118   59  122 1    
   119   60   61 2    
   120   60   62 1    
   121   62   63 1    
   122   62   64 1    
   123   62  123 1    
   124   63  124 1    
   125   63  125 1    
   126   63  126 1    
   127   64   65 am   BACKBONE|DICT|INTERRES
   128   64  127 1    
   129   65   66 2    
@<TRIPOS>SUBSTRUCTURE
     1 UNK         1 GROUP             0       ****    0 ROOT    
