@<TRIPOS>MOLECULE
3R135
127   129    1
SMALL
USER_CHARGES


@<TRIPOS>ATOM
      1 CA        -82.4822   24.8062  -69.2299 C.3       0 UNK        -0.1998 
      2 C         -82.9837   25.4049  -70.5357 C.2       0 UNK         0.4909 
      3 O         -84.1466   25.2102  -70.8926 O.2       0 UNK        -0.5240 
      4 N         -82.1173   26.1389  -71.2440 N.am      1 UNK        -0.4739 
      5 CA        -82.4035   26.7371  -72.5533 C.3       1 UNK         0.0864 
      6 C6        -81.4156   27.8783  -72.8965 C.3       11 UNK        -0.0881 
      7 S7        -81.4212   29.2269  -71.6666 S.3       11 UNK        -0.2682 
      8 C8        -79.7368   29.0994  -70.9654 C.3       11 UNK         0.0289 
      9 C9        -78.5958   29.2123  -71.9798 C.ar      11 UNK        -0.0687 
     10 C10       -78.7370   29.9095  -73.1876 C.ar      11 UNK        -0.0823 
     11 C11       -77.6868   29.9738  -74.1075 C.ar      11 UNK        -0.0830 
     12 C12       -76.4609   29.3862  -73.7837 C.ar      11 UNK        -0.1021 
     13 C13       -76.3099   28.6675  -72.5960 C.ar      11 UNK        -0.0753 
     14 C14       -77.3759   28.5894  -71.6962 C.ar      11 UNK        -0.0933 
     15 C15       -75.0127   27.9273  -72.3225 C.3       11 UNK         0.0166 
     16 S16       -73.8174   28.9596  -71.4233 S.3       11 UNK        -0.2615 
     17 C17       -72.2965   27.9724  -71.6537 C.3       11 UNK        -0.0865 
     18 CA        -71.0926   28.8053  -72.1696 C.3       10 UNK         0.0862 
     19 C         -69.8199   27.9191  -72.3157 C.2       10 UNK         0.5551 
     20 N         -69.1875   27.8306  -73.4810 N.am      10 UNK        -0.7319 
     21 O         -69.3908   27.3029  -71.3433 O.2       10 UNK        -0.5018 
     22 N         -71.4187   29.5752  -73.3809 N.am      10 UNK        -0.4509 
     23 C         -70.8416   30.7399  -73.7090 C.2       10 UNK         0.4899 
     24 O         -70.0365   31.3254  -72.9822 O.2       10 UNK        -0.4839 
     25 CA        -71.2213   31.3631  -75.0706 C.3       9 UNK         0.0222 
     26 CB        -70.1182   32.2914  -75.6235 C.3       9 UNK        -0.1966 
     27 N         -71.6217   30.3832  -76.0881 N.am      9 UNK        -0.4218 
     28 C         -70.8995   29.3509  -76.5464 C.2       9 UNK         0.5020 
     29 O         -69.7548   29.0771  -76.1766 O.2       9 UNK        -0.5274 
     30 CA        -71.6065   28.4384  -77.5617 C.3       8 UNK         0.0270 
     31 CB        -70.8525   28.4191  -78.9016 C.3       8 UNK        -0.1976 
     32 N         -71.7597   27.0667  -77.0710 N.am      8 UNK        -0.4313 
     33 C         -72.3195   26.7052  -75.9086 C.2       8 UNK         0.5041 
     34 O         -72.7609   27.5015  -75.0774 O.2       8 UNK        -0.5577 
     35 CA        -72.4752   25.1931  -75.6795 C.3       7 UNK         0.0284 
     36 CB        -72.5546   24.8309  -74.1859 C.3       7 UNK        -0.1958 
     37 N         -73.6947   24.7466  -76.3493 N.am      7 UNK        -0.4454 
     38 C         -73.7959   24.5044  -77.6657 C.2       7 UNK         0.5089 
     39 O         -72.8259   24.4498  -78.4232 O.2       7 UNK        -0.5125 
     40 CA        -75.2148   24.3398  -78.2467 C.3       6 UNK         0.0408 
     41 CB        -75.5719   22.8517  -78.3741 C.3       6 UNK        -0.1791 
     42 N         -76.2332   25.0368  -77.4505 N.am      6 UNK        -0.4762 
     43 C         -76.2955   26.3749  -77.3243 C.2       6 UNK         0.5007 
     44 O         -75.6195   27.1326  -78.0209 O.2       6 UNK        -0.5032 
     45 CA        -77.1914   26.9709  -76.2098 C.3       5 UNK         0.0783 
     46 C46       -78.1556   28.0849  -76.7037 C.3       11 UNK        -0.0857 
     47 S47       -77.3144   29.7016  -76.8876 S.3       11 UNK        -0.2512 
     48 C48       -77.8988   30.6691  -75.4494 C.3       11 UNK         0.0225 
     49 N         -77.8872   25.9541  -75.4132 N.am      5 UNK        -0.4615 
     50 C         -77.2981   25.2038  -74.4687 C.2       4 UNK         0.5053 
     51 O         -76.1074   25.2988  -74.1734 O.2       4 UNK        -0.5105 
     52 CA        -78.1523   24.1195  -73.7853 C.3       4 UNK         0.0263 
     53 CB        -78.7221   24.6399  -72.4572 C.3       4 UNK        -0.1981 
     54 N         -79.2354   23.6082  -74.6351 N.am      4 UNK        -0.4224 
     55 C         -79.0286   22.9710  -75.7998 C.2       3 UNK         0.4895 
     56 O         -77.9063   22.7053  -76.2278 O.2       3 UNK        -0.5091 
     57 CA        -80.2459   22.5918  -76.6628 C.3       3 UNK         0.0250 
     58 CB        -80.5433   21.0891  -76.5354 C.3       3 UNK        -0.1996 
     59 N         -81.4676   23.3467  -76.3778 N.am      3 UNK        -0.4254 
     60 C         -81.6190   24.6752  -76.4720 C.2       2 UNK         0.5004 
     61 O         -80.7176   25.4497  -76.8011 O.2       2 UNK        -0.5226 
     62 CA        -82.9959   25.2460  -76.0745 C.3       2 UNK         0.0269 
     63 CB        -84.1106   24.1817  -75.9471 C.3       2 UNK        -0.1926 
     64 N         -82.9241   26.0433  -74.8432 N.am      2 UNK        -0.4687 
     65 C         -82.3890   25.6709  -73.6693 C.2       1 UNK         0.5165 
     66 O         -81.8644   24.5699  -73.4711 O.2       1 UNK        -0.5079 
     67 H67       -83.0851   25.1650  -68.3962 H         1 UNK         0.0900 
     68 H68       -82.5573   23.7197  -69.2632 H         1 UNK         0.0900 
     69 H69       -81.4425   25.0680  -69.0340 H         1 UNK         0.0900 
     70 H70       -81.1735   26.2544  -70.9079 H         1 UNK         0.2959 
     71 H71       -83.4118   27.1566  -72.5173 H         1 UNK         0.1079 
     72 H72       -80.4053   27.4870  -73.0170 H         1 UNK         0.0837 
     73 H73       -81.6687   28.3304  -73.8573 H         1 UNK         0.0837 
     74 H74       -79.6132   29.8845  -70.2186 H         1 UNK         0.0685 
     75 H75       -79.6646   28.1509  -70.4310 H         1 UNK         0.0685 
     76 H76       -79.6745   30.3907  -73.4270 H         1 UNK         0.1434 
     77 H77       -75.6356   29.4430  -74.4808 H         1 UNK         0.1329 
     78 H78       -77.2555   28.0332  -70.7765 H         1 UNK         0.1335 
     79 H79       -75.2081   27.0178  -71.7523 H         1 UNK         0.0680 
     80 H80       -74.5844   27.6021  -73.2705 H         1 UNK         0.0680 
     81 H81       -72.0541   27.5109  -70.6946 H         1 UNK         0.1032 
     82 H82       -72.4933   27.1471  -72.3383 H         1 UNK         0.1032 
     83 H83       -70.8567   29.5195  -71.3784 H         1 UNK         0.0461 
     84 H84       -69.5130   28.3401  -74.2954 H         1 UNK         0.3453 
     85 H85       -68.3624   27.2571  -73.5487 H         1 UNK         0.3453 
     86 H86       -72.0338   29.1099  -74.0418 H         1 UNK         0.2984 
     87 H87       -72.1028   31.9768  -74.8806 H         1 UNK         0.0554 
     88 H88       -69.9120   33.1118  -74.9351 H         1 UNK         0.0847 
     89 H89       -70.4125   32.7369  -76.5737 H         1 UNK         0.0847 
     90 H90       -69.1813   31.7556  -75.7801 H         1 UNK         0.0847 
     91 H91       -72.5675   30.4820  -76.4312 H         1 UNK         0.3141 
     92 H92       -72.6118   28.8236  -77.7454 H         1 UNK         0.0743 
     93 H93       -69.8530   27.9949  -78.7955 H         1 UNK         0.0784 
     94 H94       -71.3879   27.8361  -79.6513 H         1 UNK         0.0784 
     95 H95       -70.7373   29.4286  -79.2988 H         1 UNK         0.0784 
     96 H96       -71.4756   26.3303  -77.7031 H         1 UNK         0.3213 
     97 H97       -71.6086   24.6815  -76.1046 H         1 UNK         0.0855 
     98 H98       -73.4182   25.2880  -73.7015 H         1 UNK         0.0814 
     99 H99       -71.6629   25.1700  -73.6573 H         1 UNK         0.0814 
    100 H100      -72.6264   23.7526  -74.0440 H         1 UNK         0.0814 
    101 H101      -74.5470   24.8147  -75.8063 H         1 UNK         0.3105 
    102 H102      -75.2158   24.7740  -79.2486 H         1 UNK         0.0547 
    103 H103      -74.8701   22.3392  -79.0333 H         1 UNK         0.0837 
    104 H104      -75.5386   22.3444  -77.4092 H         1 UNK         0.0837 
    105 H105      -76.5690   22.7144  -78.7924 H         1 UNK         0.0837 
    106 H106      -76.8270   24.4555  -76.8690 H         1 UNK         0.3020 
    107 H107      -76.4763   27.4380  -75.5332 H         1 UNK         0.1245 
    108 H108      -78.9804   28.2129  -76.0005 H         1 UNK         0.0781 
    109 H109      -78.6198   27.8087  -77.6522 H         1 UNK         0.0781 
    110 H110      -78.9544   30.8995  -75.6014 H         1 UNK         0.0836 
    111 H111      -77.3754   31.6259  -75.4343 H         1 UNK         0.0836 
    112 H112      -78.8563   25.7791  -75.6540 H         1 UNK         0.3022 
    113 H113      -77.4899   23.2807  -73.5609 H         1 UNK         0.0747 
    114 H114      -79.2894   23.8681  -71.9366 H         1 UNK         0.0793 
    115 H115      -77.9218   24.9634  -71.7901 H         1 UNK         0.0793 
    116 H116      -79.3798   25.4928  -72.6109 H         1 UNK         0.0793 
    117 H117      -80.1870   23.8040  -74.3375 H         1 UNK         0.3047 
    118 H118      -79.9734   22.7994  -77.6997 H         1 UNK         0.0822 
    119 H119      -81.3325   20.7797  -77.2209 H         1 UNK         0.0807 
    120 H120      -80.8517   20.8235  -75.5234 H         1 UNK         0.0807 
    121 H121      -79.6602   20.4940  -76.7735 H         1 UNK         0.0807 
    122 H122      -82.2585   22.8094  -76.0534 H         1 UNK         0.2946 
    123 H123      -83.2786   25.9271  -76.8792 H         1 UNK         0.1144 
    124 H124      -85.0780   24.6535  -75.7740 H         1 UNK         0.0793 
    125 H125      -83.9342   23.4922  -75.1204 H         1 UNK         0.0793 
    126 H126      -84.2060   23.5944  -76.8616 H         1 UNK         0.0793 
    127 H127      -83.2943   26.9807  -74.9203 H         1 UNK         0.2896 
@<TRIPOS>BOND
     1    1    2 1    
     2    1   67 1    
     3    1   68 1    
     4    1   69 1    
     5    2    3 2    
     6    2    4 am   BACKBONE|DICT|INTERRES
     7    4    5 1    
     8    4   70 1    
     9    5    6 1    
    10    5   65 1    
    11    5   71 1    
    12    6    7 1    
    13    6   72 1    
    14    6   73 1    
    15    7    8 1    
    16    8    9 1    
    17    8   74 1    
    18    8   75 1    
    19    9   10 ar   
    20    9   14 ar   
    21   10   11 ar   
    22   10   76 1    
    23   11   12 ar   
    24   11   48 1    
    25   12   13 ar   
    26   12   77 1    
    27   13   14 ar   
    28   13   15 1    
    29   14   78 1    
    30   15   16 1    
    31   15   79 1    
    32   15   80 1    
    33   16   17 1    
    34   17   18 1    
    35   17   81 1    
    36   17   82 1    
    37   18   19 1    
    38   18   22 1    
    39   18   83 1    
    40   19   20 am   BACKBONE|DICT|INTERRES
    41   19   21 2    
    42   20   84 1    
    43   20   85 1    
    44   22   23 am   BACKBONE|DICT|INTERRES
    45   22   86 1    
    46   23   24 2    
    47   23   25 1    
    48   25   26 1    
    49   25   27 1    
    50   25   87 1    
    51   26   88 1    
    52   26   89 1    
    53   26   90 1    
    54   27   28 am   BACKBONE|DICT|INTERRES
    55   27   91 1    
    56   28   29 2    
    57   28   30 1    
    58   30   31 1    
    59   30   32 1    
    60   30   92 1    
    61   31   93 1    
    62   31   94 1    
    63   31   95 1    
    64   32   33 am   BACKBONE|DICT|INTERRES
    65   32   96 1    
    66   33   34 2    
    67   33   35 1    
    68   35   36 1    
    69   35   37 1    
    70   35   97 1    
    71   36   98 1    
    72   36   99 1    
    73   36  100 1    
    74   37   38 am   BACKBONE|DICT|INTERRES
    75   37  101 1    
    76   38   39 2    
    77   38   40 1    
    78   40   41 1    
    79   40   42 1    
    80   40  102 1    
    81   41  103 1    
    82   41  104 1    
    83   41  105 1    
    84   42   43 am   BACKBONE|DICT|INTERRES
    85   42  106 1    
    86   43   44 2    
    87   43   45 1    
    88   45   46 1    
    89   45   49 1    
    90   45  107 1    
    91   46   47 1    
    92   46  108 1    
    93   46  109 1    
    94   47   48 1    
    95   48  110 1    
    96   48  111 1    
    97   49   50 am   BACKBONE|DICT|INTERRES
    98   49  112 1    
    99   50   51 2    
   100   50   52 1    
   101   52   53 1    
   102   52   54 1    
   103   52  113 1    
   104   53  114 1    
   105   53  115 1    
   106   53  116 1    
   107   54   55 am   BACKBONE|DICT|INTERRES
   108   54  117 1    
   109   55   56 2    
   110   55   57 1    
   111   57   58 1    
   112   57   59 1    
   113   57  118 1    
   114   58  119 1    
   115   58  120 1    
   116   58  121 1    
   117   59   60 am   BACKBONE|DICT|INTERRES
   118   59  122 1    
   119   60   61 2    
   120   60   62 1    
   121   62   63 1    
   122   62   64 1    
   123   62  123 1    
   124   63  124 1    
   125   63  125 1    
   126   63  126 1    
   127   64   65 am   BACKBONE|DICT|INTERRES
   128   64  127 1    
   129   65   66 2    
@<TRIPOS>SUBSTRUCTURE
     1 UNK         1 GROUP             0       ****    0 ROOT    
