@<TRIPOS>MOLECULE
3R135
127   129    1
SMALL
USER_CHARGES


@<TRIPOS>ATOM
      1 CA        -84.1023   27.6658  -70.8981 C.3       0 UNK        -0.1998 
      2 C         -83.9762   28.2350  -72.3033 C.2       0 UNK         0.4909 
      3 O         -84.5914   29.2575  -72.6079 O.2       0 UNK        -0.5240 
      4 N         -83.1832   27.5829  -73.1580 N.am      1 UNK        -0.4739 
      5 CA        -82.9504   27.9568  -74.5533 C.3       1 UNK         0.0864 
      6 C6        -82.0177   29.1944  -74.7146 C.3       11 UNK        -0.0881 
      7 S7        -80.3021   28.9380  -74.1410 S.3       11 UNK        -0.2682 
      8 C8        -80.3609   29.7092  -72.4978 C.3       11 UNK         0.0289 
      9 C9        -79.0188   29.5819  -71.7987 C.ar      11 UNK        -0.0687 
     10 C10       -78.6990   28.4120  -71.1024 C.ar      11 UNK        -0.0823 
     11 C11       -77.4609   28.2856  -70.4657 C.ar      11 UNK        -0.0830 
     12 C12       -76.5562   29.3483  -70.5043 C.ar      11 UNK        -0.1021 
     13 C13       -76.8511   30.5077  -71.2250 C.ar      11 UNK        -0.0753 
     14 C14       -78.0885   30.6236  -71.8645 C.ar      11 UNK        -0.0933 
     15 C15       -75.8181   31.6175  -71.3393 C.3       11 UNK         0.0166 
     16 S16       -74.6737   31.3086  -72.7226 S.3       11 UNK        -0.2615 
     17 C17       -73.6883   29.9131  -72.0721 C.3       11 UNK        -0.0865 
     18 CA        -72.2984   29.8071  -72.7491 C.3       10 UNK         0.0862 
     19 C         -71.3446   28.8284  -72.0004 C.2       10 UNK         0.5551 
     20 N         -70.5548   28.0056  -72.6813 N.am      10 UNK        -0.7319 
     21 O         -71.3003   28.8268  -70.7725 O.2       10 UNK        -0.5018 
     22 N         -72.4307   29.5001  -74.1809 N.am      10 UNK        -0.4509 
     23 C         -71.7259   30.0830  -75.1570 C.2       10 UNK         0.4899 
     24 O         -70.9327   31.0088  -74.9761 O.2       10 UNK        -0.4839 
     25 CA        -71.9301   29.5061  -76.5709 C.3       9 UNK         0.0222 
     26 CB        -70.9147   30.0500  -77.5982 C.3       9 UNK        -0.1966 
     27 N         -71.9443   28.0376  -76.5895 N.am      9 UNK        -0.4218 
     28 C         -70.9803   27.2090  -76.1535 C.2       9 UNK         0.5020 
     29 O         -69.9261   27.6015  -75.6510 O.2       9 UNK        -0.5274 
     30 CA        -71.2227   25.6888  -76.2427 C.3       8 UNK         0.0270 
     31 CB        -71.1828   25.0591  -74.8392 C.3       8 UNK        -0.1976 
     32 N         -72.4852   25.3228  -76.8877 N.am      8 UNK        -0.4313 
     33 C         -72.7296   25.3783  -78.2035 C.2       8 UNK         0.5041 
     34 O         -71.8800   25.6672  -79.0465 O.2       8 UNK        -0.5577 
     35 CA        -74.1811   25.1211  -78.6480 C.3       7 UNK         0.0284 
     36 CB        -74.4200   23.6207  -78.8721 C.3       7 UNK        -0.1958 
     37 N         -75.1792   25.6540  -77.7103 N.am      7 UNK        -0.4454 
     38 C         -75.3106   26.9555  -77.4060 C.2       7 UNK         0.5089 
     39 O         -74.6052   27.8423  -77.8852 O.2       7 UNK        -0.5125 
     40 CA        -76.3804   27.3352  -76.3722 C.3       6 UNK         0.0408 
     41 CB        -77.7611   27.4083  -77.0365 C.3       6 UNK        -0.1791 
     42 N         -76.4114   26.3992  -75.2488 N.am      6 UNK        -0.4762 
     43 C         -75.4713   26.3443  -74.2917 C.2       6 UNK         0.5007 
     44 O         -74.5084   27.1134  -74.2307 O.2       6 UNK        -0.5032 
     45 CA        -75.5996   25.1897  -73.2738 C.3       5 UNK         0.0783 
     46 C46       -76.5855   25.5209  -72.1202 C.3       11 UNK        -0.0857 
     47 S47       -75.7253   26.1385  -70.6368 S.3       11 UNK        -0.2512 
     48 C48       -77.0754   26.9948  -69.7607 C.3       11 UNK         0.0225 
     49 N         -75.9433   23.9208  -73.9246 N.am      5 UNK        -0.4615 
     50 C         -75.1563   23.2739  -74.7942 C.2       4 UNK         0.5053 
     51 O         -74.0597   23.6882  -75.1626 O.2       4 UNK        -0.5105 
     52 CA        -75.6850   21.9505  -75.3690 C.3       4 UNK         0.0263 
     53 CB        -75.2690   20.7753  -74.4703 C.3       4 UNK        -0.1981 
     54 N         -77.1357   21.9217  -75.5692 N.am      4 UNK        -0.4224 
     55 C         -77.8315   22.7533  -76.3575 C.2       3 UNK         0.4895 
     56 O         -77.3188   23.6786  -76.9950 O.2       3 UNK        -0.5091 
     57 CA        -79.3445   22.4676  -76.4685 C.3       3 UNK         0.0250 
     58 CB        -79.9695   21.9720  -75.1430 C.3       3 UNK        -0.1996 
     59 N         -80.1146   23.5969  -77.0021 N.am      3 UNK        -0.4254 
     60 C         -80.2570   24.8139  -76.4573 C.2       2 UNK         0.5004 
     61 O         -79.7073   25.1662  -75.4097 O.2       2 UNK        -0.5226 
     62 CA        -81.1379   25.8156  -77.2400 C.3       2 UNK         0.0269 
     63 CB        -82.2465   25.1429  -78.0837 C.3       2 UNK        -0.1926 
     64 N         -81.7110   26.8614  -76.3824 N.am      2 UNK        -0.4687 
     65 C         -82.5397   26.6935  -75.3405 C.2       1 UNK         0.5165 
     66 O         -82.9944   25.5986  -74.9953 O.2       1 UNK        -0.5079 
     67 H67       -83.5032   26.7646  -70.7680 H         1 UNK         0.0900 
     68 H68       -85.1416   27.4159  -70.6860 H         1 UNK         0.0900 
     69 H69       -83.7715   28.4010  -70.1650 H         1 UNK         0.0900 
     70 H70       -82.7450   26.7124  -72.8859 H         1 UNK         0.2959 
     71 H71       -83.9196   28.2320  -74.9755 H         1 UNK         0.1079 
     72 H72       -81.9845   29.5105  -75.7584 H         1 UNK         0.0837 
     73 H73       -82.4450   30.0470  -74.1850 H         1 UNK         0.0837 
     74 H74       -81.1368   29.2352  -71.8960 H         1 UNK         0.0685 
     75 H75       -80.6408   30.7591  -72.5969 H         1 UNK         0.0685 
     76 H76       -79.4072   27.5950  -71.0767 H         1 UNK         0.1434 
     77 H77       -75.6005   29.2490  -70.0088 H         1 UNK         0.1329 
     78 H78       -78.3213   31.5177  -72.4268 H         1 UNK         0.1335 
     79 H79       -76.3153   32.5751  -71.5015 H         1 UNK         0.0680 
     80 H80       -75.2596   31.7186  -70.4074 H         1 UNK         0.0680 
     81 H81       -73.5731   30.0569  -70.9966 H         1 UNK         0.1032 
     82 H82       -74.2493   28.9856  -72.2021 H         1 UNK         0.1032 
     83 H83       -71.8240   30.7837  -72.6378 H         1 UNK         0.0461 
     84 H84       -70.5203   28.0287  -73.6928 H         1 UNK         0.3453 
     85 H85       -69.9398   27.3902  -72.1739 H         1 UNK         0.3453 
     86 H86       -73.0507   28.7296  -74.4056 H         1 UNK         0.2984 
     87 H87       -72.9234   29.8261  -76.8884 H         1 UNK         0.0554 
     88 H88       -71.1036   29.6466  -78.5930 H         1 UNK         0.0847 
     89 H89       -69.8889   29.8011  -77.3243 H         1 UNK         0.0847 
     90 H90       -70.9771   31.1363  -77.6729 H         1 UNK         0.0847 
     91 H91       -72.7878   27.6299  -76.9790 H         1 UNK         0.3141 
     92 H92       -70.4036   25.2671  -76.8288 H         1 UNK         0.0743 
     93 H93       -70.2337   25.2612  -74.3409 H         1 UNK         0.0784 
     94 H94       -71.9769   25.4505  -74.2014 H         1 UNK         0.0784 
     95 H95       -71.2951   23.9758  -74.8871 H         1 UNK         0.0784 
     96 H96       -73.2205   24.9813  -76.2718 H         1 UNK         0.3213 
     97 H97       -74.3282   25.6332  -79.6013 H         1 UNK         0.0855 
     98 H98       -74.2196   23.0451  -77.9698 H         1 UNK         0.0814 
     99 H99       -73.7624   23.2363  -79.6528 H         1 UNK         0.0814 
    100 H100      -75.4456   23.4193  -79.1822 H         1 UNK         0.0814 
    101 H101      -75.8298   24.9889  -77.3009 H         1 UNK         0.3105 
    102 H102      -76.1413   28.3272  -75.9823 H         1 UNK         0.0547 
    103 H103      -78.5366   27.6619  -76.3139 H         1 UNK         0.0837 
    104 H104      -77.7784   28.1719  -77.8150 H         1 UNK         0.0837 
    105 H105      -78.0280   26.4604  -77.5037 H         1 UNK         0.0837 
    106 H106      -77.1592   25.7167  -75.2446 H         1 UNK         0.3020 
    107 H107      -74.6015   25.0439  -72.8529 H         1 UNK         0.1245 
    108 H108      -77.1289   24.6284  -71.8056 H         1 UNK         0.0781 
    109 H109      -77.3535   26.2297  -72.4362 H         1 UNK         0.0781 
    110 H110      -76.7496   27.2249  -68.7452 H         1 UNK         0.0836 
    111 H111      -77.9313   26.3248  -69.6648 H         1 UNK         0.0836 
    112 H112      -76.8385   23.5166  -73.6940 H         1 UNK         0.3022 
    113 H113      -75.2210   21.8054  -76.3450 H         1 UNK         0.0747 
    114 H114      -75.5456   19.8183  -74.9132 H         1 UNK         0.0793 
    115 H115      -74.1879   20.7606  -74.3238 H         1 UNK         0.0793 
    116 H116      -75.7303   20.8361  -73.4836 H         1 UNK         0.0793 
    117 H117      -77.6387   21.1876  -75.0920 H         1 UNK         0.3047 
    118 H118      -79.4446   21.6668  -77.2027 H         1 UNK         0.0822 
    119 H119      -79.5782   20.9977  -74.8494 H         1 UNK         0.0807 
    120 H120      -81.0497   21.8579  -75.2369 H         1 UNK         0.0807 
    121 H121      -79.7832   22.6655  -74.3218 H         1 UNK         0.0807 
    122 H122      -80.5705   23.4257  -77.8869 H         1 UNK         0.2946 
    123 H123      -80.4670   26.3278  -77.9308 H         1 UNK         0.1144 
    124 H124      -81.8279   24.5407  -78.8906 H         1 UNK         0.0793 
    125 H125      -82.8901   25.8874  -78.5527 H         1 UNK         0.0793 
    126 H126      -82.8802   24.4926  -77.4792 H         1 UNK         0.0793 
    127 H127      -81.3494   27.7917  -76.5381 H         1 UNK         0.2896 
@<TRIPOS>BOND
     1    1    2 1    
     2    1   67 1    
     3    1   68 1    
     4    1   69 1    
     5    2    3 2    
     6    2    4 am   BACKBONE|DICT|INTERRES
     7    4    5 1    
     8    4   70 1    
     9    5    6 1    
    10    5   65 1    
    11    5   71 1    
    12    6    7 1    
    13    6   72 1    
    14    6   73 1    
    15    7    8 1    
    16    8    9 1    
    17    8   74 1    
    18    8   75 1    
    19    9   10 ar   
    20    9   14 ar   
    21   10   11 ar   
    22   10   76 1    
    23   11   12 ar   
    24   11   48 1    
    25   12   13 ar   
    26   12   77 1    
    27   13   14 ar   
    28   13   15 1    
    29   14   78 1    
    30   15   16 1    
    31   15   79 1    
    32   15   80 1    
    33   16   17 1    
    34   17   18 1    
    35   17   81 1    
    36   17   82 1    
    37   18   19 1    
    38   18   22 1    
    39   18   83 1    
    40   19   20 am   BACKBONE|DICT|INTERRES
    41   19   21 2    
    42   20   84 1    
    43   20   85 1    
    44   22   23 am   BACKBONE|DICT|INTERRES
    45   22   86 1    
    46   23   24 2    
    47   23   25 1    
    48   25   26 1    
    49   25   27 1    
    50   25   87 1    
    51   26   88 1    
    52   26   89 1    
    53   26   90 1    
    54   27   28 am   BACKBONE|DICT|INTERRES
    55   27   91 1    
    56   28   29 2    
    57   28   30 1    
    58   30   31 1    
    59   30   32 1    
    60   30   92 1    
    61   31   93 1    
    62   31   94 1    
    63   31   95 1    
    64   32   33 am   BACKBONE|DICT|INTERRES
    65   32   96 1    
    66   33   34 2    
    67   33   35 1    
    68   35   36 1    
    69   35   37 1    
    70   35   97 1    
    71   36   98 1    
    72   36   99 1    
    73   36  100 1    
    74   37   38 am   BACKBONE|DICT|INTERRES
    75   37  101 1    
    76   38   39 2    
    77   38   40 1    
    78   40   41 1    
    79   40   42 1    
    80   40  102 1    
    81   41  103 1    
    82   41  104 1    
    83   41  105 1    
    84   42   43 am   BACKBONE|DICT|INTERRES
    85   42  106 1    
    86   43   44 2    
    87   43   45 1    
    88   45   46 1    
    89   45   49 1    
    90   45  107 1    
    91   46   47 1    
    92   46  108 1    
    93   46  109 1    
    94   47   48 1    
    95   48  110 1    
    96   48  111 1    
    97   49   50 am   BACKBONE|DICT|INTERRES
    98   49  112 1    
    99   50   51 2    
   100   50   52 1    
   101   52   53 1    
   102   52   54 1    
   103   52  113 1    
   104   53  114 1    
   105   53  115 1    
   106   53  116 1    
   107   54   55 am   BACKBONE|DICT|INTERRES
   108   54  117 1    
   109   55   56 2    
   110   55   57 1    
   111   57   58 1    
   112   57   59 1    
   113   57  118 1    
   114   58  119 1    
   115   58  120 1    
   116   58  121 1    
   117   59   60 am   BACKBONE|DICT|INTERRES
   118   59  122 1    
   119   60   61 2    
   120   60   62 1    
   121   62   63 1    
   122   62   64 1    
   123   62  123 1    
   124   63  124 1    
   125   63  125 1    
   126   63  126 1    
   127   64   65 am   BACKBONE|DICT|INTERRES
   128   64  127 1    
   129   65   66 2    
@<TRIPOS>SUBSTRUCTURE
     1 UNK         1 GROUP             0       ****    0 ROOT    
