@<TRIPOS>MOLECULE
3R135
127   129    1
SMALL
USER_CHARGES


@<TRIPOS>ATOM
      1 CA        -82.0873   24.9713  -71.9054 C.3       0 UNK        -0.1998 
      2 C         -82.5427   26.2059  -72.6662 C.2       0 UNK         0.4909 
      3 O         -83.4520   26.1115  -73.4914 O.2       0 UNK        -0.5240 
      4 N         -81.9336   27.3659  -72.3853 N.am      1 UNK        -0.4739 
      5 CA        -82.3027   28.6576  -72.9833 C.3       1 UNK         0.0864 
      6 C6        -81.8528   29.8688  -72.1266 C.3       11 UNK        -0.0881 
      7 S7        -82.3911   29.7220  -70.3830 S.3       11 UNK        -0.2682 
      8 C8        -80.8827   30.1239  -69.4355 C.3       11 UNK         0.0289 
      9 C9        -79.6498   29.3597  -69.9033 C.ar      11 UNK        -0.0687 
     10 C10       -79.6149   27.9624  -69.8671 C.ar      11 UNK        -0.0823 
     11 C11       -78.4931   27.2676  -70.3331 C.ar      11 UNK        -0.0830 
     12 C12       -77.3925   27.9841  -70.8178 C.ar      11 UNK        -0.1021 
     13 C13       -77.4137   29.3816  -70.8511 C.ar      11 UNK        -0.0753 
     14 C14       -78.5424   30.0615  -70.3869 C.ar      11 UNK        -0.0933 
     15 C15       -76.2231   30.1680  -71.3799 C.3       11 UNK         0.0166 
     16 S16       -76.6224   30.9911  -72.9534 S.3       11 UNK        -0.2615 
     17 C17       -75.1287   32.0084  -73.2208 C.3       11 UNK        -0.0865 
     18 CA        -74.3612   31.5904  -74.4999 C.3       10 UNK         0.0862 
     19 C         -73.2145   32.5863  -74.8117 C.2       10 UNK         0.5551 
     20 N         -73.4807   33.6072  -75.6143 N.am      10 UNK        -0.7319 
     21 O         -72.1022   32.4656  -74.3008 O.2       10 UNK        -0.5018 
     22 N         -73.8533   30.2171  -74.3933 N.am      10 UNK        -0.4509 
     23 C         -73.7306   29.3730  -75.4209 C.2       10 UNK         0.4899 
     24 O         -74.0683   29.6446  -76.5756 O.2       10 UNK        -0.4839 
     25 CA        -73.1730   27.9789  -75.0731 C.3       9 UNK         0.0222 
     26 CB        -74.1235   27.2388  -74.1114 C.3       9 UNK        -0.1966 
     27 N         -72.9474   27.1589  -76.2692 N.am      9 UNK        -0.4218 
     28 C         -71.9447   27.3464  -77.1409 C.2       9 UNK         0.5020 
     29 O         -71.0288   28.1521  -76.9611 O.2       9 UNK        -0.5274 
     30 CA        -71.9599   26.4765  -78.4100 C.3       8 UNK         0.0270 
     31 CB        -70.6664   26.5846  -79.2410 C.3       8 UNK        -0.1976 
     32 N         -72.1890   25.0834  -78.0451 N.am      8 UNK        -0.4313 
     33 C         -72.9727   24.2082  -78.6799 C.2       8 UNK         0.5041 
     34 O         -73.5782   24.4633  -79.7217 O.2       8 UNK        -0.5577 
     35 CA        -73.1259   22.8095  -78.0455 C.3       7 UNK         0.0284 
     36 CB        -72.0138   21.8614  -78.5343 C.3       7 UNK        -0.1958 
     37 N         -73.2350   22.7942  -76.5752 N.am      7 UNK        -0.4454 
     38 C         -72.3329   23.1694  -75.6548 C.2       7 UNK         0.5089 
     39 O         -71.2057   23.5833  -75.9299 O.2       7 UNK        -0.5125 
     40 CA        -72.7922   23.1305  -74.1907 C.3       6 UNK         0.0408 
     41 CB        -71.8963   23.9691  -73.2558 C.3       6 UNK        -0.1791 
     42 N         -74.1896   23.5573  -74.0880 N.am      6 UNK        -0.4762 
     43 C         -75.0456   23.1331  -73.1488 C.2       6 UNK         0.5007 
     44 O         -74.7207   22.3923  -72.2197 O.2       6 UNK        -0.5032 
     45 CA        -76.5186   23.5877  -73.2609 C.3       5 UNK         0.0783 
     46 C46       -76.7657   24.8232  -72.3615 C.3       11 UNK        -0.0857 
     47 S47       -78.5354   25.0335  -71.9812 S.3       11 UNK        -0.2512 
     48 C48       -78.4723   25.7453  -70.3030 C.3       11 UNK         0.0225 
     49 N         -76.9614   23.8344  -74.6411 N.am      5 UNK        -0.4615 
     50 C         -76.9019   22.9600  -75.6573 C.2       4 UNK         0.5053 
     51 O         -76.5052   21.8011  -75.5367 O.2       4 UNK        -0.5105 
     52 CA        -77.3099   23.4511  -77.0598 C.3       4 UNK         0.0263 
     53 CB        -78.6921   22.8936  -77.4364 C.3       4 UNK        -0.1981 
     54 N         -77.3242   24.9055  -77.2388 N.am      4 UNK        -0.4224 
     55 C         -76.3016   25.7507  -77.0441 C.2       3 UNK         0.4895 
     56 O         -75.1841   25.4053  -76.6557 O.2       3 UNK        -0.5091 
     57 CA        -76.5824   27.2451  -77.2876 C.3       3 UNK         0.0250 
     58 CB        -76.0735   27.6619  -78.6753 C.3       3 UNK        -0.1996 
     59 N         -77.9906   27.6362  -77.1523 N.am      3 UNK        -0.4254 
     60 C         -78.7255   27.5112  -76.0382 C.2       2 UNK         0.5004 
     61 O         -78.3080   27.0127  -74.9897 O.2       2 UNK        -0.5226 
     62 CA        -80.1827   27.9757  -76.1415 C.3       2 UNK         0.0269 
     63 CB        -81.0071   27.0172  -77.0237 C.3       2 UNK        -0.1926 
     64 N         -80.7679   28.0300  -74.8061 N.am      2 UNK        -0.4687 
     65 C         -81.8021   28.7956  -74.4367 C.2       1 UNK         0.5165 
     66 O         -82.3688   29.5830  -75.1965 O.2       1 UNK        -0.5079 
     67 H67       -81.4685   25.2313  -71.0477 H         1 UNK         0.0900 
     68 H68       -82.9495   24.4153  -71.5386 H         1 UNK         0.0900 
     69 H69       -81.5129   24.3170  -72.5605 H         1 UNK         0.0900 
     70 H70       -81.1872   27.3970  -71.7054 H         1 UNK         0.2959 
     71 H71       -83.3936   28.6918  -73.0347 H         1 UNK         0.1079 
     72 H72       -82.2779   30.7907  -72.5281 H         1 UNK         0.0837 
     73 H73       -80.7714   29.9942  -72.1860 H         1 UNK         0.0837 
     74 H74       -80.7158   31.2004  -69.4976 H         1 UNK         0.0685 
     75 H75       -81.0593   29.9032  -68.3820 H         1 UNK         0.0685 
     76 H76       -80.4690   27.4209  -69.4833 H         1 UNK         0.1434 
     77 H77       -76.5216   27.4532  -71.1745 H         1 UNK         0.1329 
     78 H78       -78.5599   31.1425  -70.4195 H         1 UNK         0.1335 
     79 H79       -75.9337   30.9157  -70.6399 H         1 UNK         0.0680 
     80 H80       -75.3594   29.5172  -71.5236 H         1 UNK         0.0680 
     81 H81       -75.4544   33.0477  -73.2972 H         1 UNK         0.1032 
     82 H82       -74.4764   31.9635  -72.3466 H         1 UNK         0.1032 
     83 H83       -75.0708   31.6342  -75.3294 H         1 UNK         0.0461 
     84 H84       -74.3922   33.7193  -76.0308 H         1 UNK         0.3453 
     85 H85       -72.7528   34.2748  -75.8169 H         1 UNK         0.3453 
     86 H86       -73.5158   29.9400  -73.4841 H         1 UNK         0.2984 
     87 H87       -72.2143   28.1156  -74.5685 H         1 UNK         0.0554 
     88 H88       -73.7674   26.2356  -73.8937 H         1 UNK         0.0847 
     89 H89       -75.1331   27.1551  -74.5120 H         1 UNK         0.0847 
     90 H90       -74.2036   27.7563  -73.1552 H         1 UNK         0.0847 
     91 H91       -73.6751   26.4863  -76.5013 H         1 UNK         0.3141 
     92 H92       -72.7870   26.8363  -79.0234 H         1 UNK         0.0743 
     93 H93       -69.7959   26.2538  -78.6732 H         1 UNK         0.0784 
     94 H94       -70.7261   25.9795  -80.1457 H         1 UNK         0.0784 
     95 H95       -70.4849   27.6141  -79.5524 H         1 UNK         0.0784 
     96 H96       -71.7208   24.7524  -77.2018 H         1 UNK         0.3213 
     97 H97       -74.0750   22.4129  -78.4098 H         1 UNK         0.0855 
     98 H98       -71.0241   22.1949  -78.2211 H         1 UNK         0.0814 
     99 H99       -72.0045   21.8038  -79.6236 H         1 UNK         0.0814 
    100 H100      -72.1617   20.8492  -78.1580 H         1 UNK         0.0814 
    101 H101      -74.1291   22.4778  -76.2234 H         1 UNK         0.3105 
    102 H102      -72.7195   22.0851  -73.8833 H         1 UNK         0.0547 
    103 H103      -70.8778   23.5791  -73.2437 H         1 UNK         0.0837 
    104 H104      -71.8372   25.0094  -73.5752 H         1 UNK         0.0837 
    105 H105      -72.2581   23.9510  -72.2280 H         1 UNK         0.0837 
    106 H106      -74.5332   24.1639  -74.8251 H         1 UNK         0.3020 
    107 H107      -77.1140   22.7545  -72.8806 H         1 UNK         0.1245 
    108 H108      -76.3966   25.7314  -72.8404 H         1 UNK         0.0781 
    109 H109      -76.2199   24.7305  -71.4206 H         1 UNK         0.0781 
    110 H110      -77.5913   25.3981  -69.7623 H         1 UNK         0.0836 
    111 H111      -79.3271   25.3666  -69.7412 H         1 UNK         0.0836 
    112 H112      -77.3227   24.7616  -74.8261 H         1 UNK         0.3022 
    113 H113      -76.5756   23.0509  -77.7617 H         1 UNK         0.0747 
    114 H114      -78.9523   23.1358  -78.4670 H         1 UNK         0.0793 
    115 H115      -78.7138   21.8063  -77.3478 H         1 UNK         0.0793 
    116 H116      -79.4758   23.2888  -76.7886 H         1 UNK         0.0793 
    117 H117      -78.1984   25.3049  -77.5455 H         1 UNK         0.3047 
    118 H118      -76.0243   27.8050  -76.5382 H         1 UNK         0.0822 
    119 H119      -76.6296   27.1728  -79.4761 H         1 UNK         0.0807 
    120 H120      -75.0240   27.3976  -78.8005 H         1 UNK         0.0807 
    121 H121      -76.1490   28.7401  -78.8178 H         1 UNK         0.0807 
    122 H122      -78.4182   28.0484  -77.9695 H         1 UNK         0.2946 
    123 H123      -80.1874   28.9777  -76.5772 H         1 UNK         0.1144 
    124 H124      -82.0430   27.3466  -77.1070 H         1 UNK         0.0793 
    125 H125      -81.0132   26.0046  -76.6179 H         1 UNK         0.0793 
    126 H126      -80.6084   26.9631  -78.0372 H         1 UNK         0.0793 
    127 H127      -80.3036   27.4490  -74.1182 H         1 UNK         0.2896 
@<TRIPOS>BOND
     1    1    2 1    
     2    1   67 1    
     3    1   68 1    
     4    1   69 1    
     5    2    3 2    
     6    2    4 am   BACKBONE|DICT|INTERRES
     7    4    5 1    
     8    4   70 1    
     9    5    6 1    
    10    5   65 1    
    11    5   71 1    
    12    6    7 1    
    13    6   72 1    
    14    6   73 1    
    15    7    8 1    
    16    8    9 1    
    17    8   74 1    
    18    8   75 1    
    19    9   10 ar   
    20    9   14 ar   
    21   10   11 ar   
    22   10   76 1    
    23   11   12 ar   
    24   11   48 1    
    25   12   13 ar   
    26   12   77 1    
    27   13   14 ar   
    28   13   15 1    
    29   14   78 1    
    30   15   16 1    
    31   15   79 1    
    32   15   80 1    
    33   16   17 1    
    34   17   18 1    
    35   17   81 1    
    36   17   82 1    
    37   18   19 1    
    38   18   22 1    
    39   18   83 1    
    40   19   20 am   BACKBONE|DICT|INTERRES
    41   19   21 2    
    42   20   84 1    
    43   20   85 1    
    44   22   23 am   BACKBONE|DICT|INTERRES
    45   22   86 1    
    46   23   24 2    
    47   23   25 1    
    48   25   26 1    
    49   25   27 1    
    50   25   87 1    
    51   26   88 1    
    52   26   89 1    
    53   26   90 1    
    54   27   28 am   BACKBONE|DICT|INTERRES
    55   27   91 1    
    56   28   29 2    
    57   28   30 1    
    58   30   31 1    
    59   30   32 1    
    60   30   92 1    
    61   31   93 1    
    62   31   94 1    
    63   31   95 1    
    64   32   33 am   BACKBONE|DICT|INTERRES
    65   32   96 1    
    66   33   34 2    
    67   33   35 1    
    68   35   36 1    
    69   35   37 1    
    70   35   97 1    
    71   36   98 1    
    72   36   99 1    
    73   36  100 1    
    74   37   38 am   BACKBONE|DICT|INTERRES
    75   37  101 1    
    76   38   39 2    
    77   38   40 1    
    78   40   41 1    
    79   40   42 1    
    80   40  102 1    
    81   41  103 1    
    82   41  104 1    
    83   41  105 1    
    84   42   43 am   BACKBONE|DICT|INTERRES
    85   42  106 1    
    86   43   44 2    
    87   43   45 1    
    88   45   46 1    
    89   45   49 1    
    90   45  107 1    
    91   46   47 1    
    92   46  108 1    
    93   46  109 1    
    94   47   48 1    
    95   48  110 1    
    96   48  111 1    
    97   49   50 am   BACKBONE|DICT|INTERRES
    98   49  112 1    
    99   50   51 2    
   100   50   52 1    
   101   52   53 1    
   102   52   54 1    
   103   52  113 1    
   104   53  114 1    
   105   53  115 1    
   106   53  116 1    
   107   54   55 am   BACKBONE|DICT|INTERRES
   108   54  117 1    
   109   55   56 2    
   110   55   57 1    
   111   57   58 1    
   112   57   59 1    
   113   57  118 1    
   114   58  119 1    
   115   58  120 1    
   116   58  121 1    
   117   59   60 am   BACKBONE|DICT|INTERRES
   118   59  122 1    
   119   60   61 2    
   120   60   62 1    
   121   62   63 1    
   122   62   64 1    
   123   62  123 1    
   124   63  124 1    
   125   63  125 1    
   126   63  126 1    
   127   64   65 am   BACKBONE|DICT|INTERRES
   128   64  127 1    
   129   65   66 2    
@<TRIPOS>SUBSTRUCTURE
     1 UNK         1 GROUP             0       ****    0 ROOT    
