@<TRIPOS>MOLECULE
3R135
127   129    1
SMALL
USER_CHARGES


@<TRIPOS>ATOM
      1 CA        -82.0494   23.7375  -70.7686 C.3       0 UNK        -0.1998 
      2 C         -82.3790   24.6217  -71.9614 C.2       0 UNK         0.4909 
      3 O         -83.3575   24.3658  -72.6652 O.2       0 UNK        -0.5240 
      4 N         -81.5685   25.6606  -72.1985 N.am      1 UNK        -0.4739 
      5 CA        -81.7044   26.6155  -73.3056 C.3       1 UNK         0.0864 
      6 C6        -81.0038   27.9590  -72.9901 C.3       11 UNK        -0.0881 
      7 S7        -81.6352   28.7799  -71.4833 S.3       11 UNK        -0.2682 
      8 C8        -80.1630   28.8090  -70.3927 C.3       11 UNK         0.0289 
      9 C9        -78.8955   29.3501  -71.0553 C.ar      11 UNK        -0.0687 
     10 C10       -78.9506   30.3984  -71.9801 C.ar      11 UNK        -0.0823 
     11 C11       -77.8034   30.8133  -72.6604 C.ar      11 UNK        -0.0830 
     12 C12       -76.5760   30.2134  -72.3671 C.ar      11 UNK        -0.1021 
     13 C13       -76.4987   29.1864  -71.4209 C.ar      11 UNK        -0.0753 
     14 C14       -77.6599   28.7614  -70.7681 C.ar      11 UNK        -0.0933 
     15 C15       -75.1701   28.4988  -71.1513 C.3       11 UNK         0.0166 
     16 S16       -73.9994   29.5967  -70.2994 S.3       11 UNK        -0.2615 
     17 C17       -72.4725   28.5986  -70.3836 C.3       11 UNK        -0.0865 
     18 CA        -71.5492   29.0219  -71.5587 C.3       10 UNK         0.0862 
     19 C         -70.1293   28.3924  -71.4287 C.2       10 UNK         0.5551 
     20 N         -69.6005   27.6967  -72.4288 N.am      10 UNK        -0.7319 
     21 O         -69.4846   28.5487  -70.3946 O.2       10 UNK        -0.5018 
     22 N         -72.1928   28.7882  -72.8619 N.am      10 UNK        -0.4509 
     23 C         -71.9574   29.4925  -73.9747 C.2       10 UNK         0.4899 
     24 O         -71.2172   30.4764  -74.0197 O.2       10 UNK        -0.4839 
     25 CA        -72.6686   28.9979  -75.2510 C.3       9 UNK         0.0222 
     26 CB        -72.0589   29.5804  -76.5425 C.3       9 UNK        -0.1966 
     27 N         -72.7573   27.5343  -75.3468 N.am      9 UNK        -0.4218 
     28 C         -71.7497   26.6490  -75.3222 C.2       9 UNK         0.5020 
     29 O         -70.5703   26.9493  -75.1322 O.2       9 UNK        -0.5274 
     30 CA        -72.1212   25.1748  -75.5536 C.3       8 UNK         0.0270 
     31 CB        -72.6293   24.5098  -74.2642 C.3       8 UNK        -0.1976 
     32 N         -73.0930   24.9964  -76.6392 N.am      8 UNK        -0.4313 
     33 C         -72.7872   25.1625  -77.9351 C.2       8 UNK         0.5041 
     34 O         -71.6740   25.5067  -78.3353 O.2       8 UNK        -0.5577 
     35 CA        -73.8851   24.8849  -78.9677 C.3       7 UNK         0.0284 
     36 CB        -74.1603   23.3755  -79.0937 C.3       7 UNK        -0.1958 
     37 N         -75.1271   25.5925  -78.6493 N.am      7 UNK        -0.4454 
     38 C         -75.7576   26.4184  -79.4947 C.2       7 UNK         0.5089 
     39 O         -75.3278   26.7203  -80.6090 O.2       7 UNK        -0.5125 
     40 CA        -77.1184   26.9872  -79.0573 C.3       6 UNK         0.0408 
     41 CB        -78.2537   26.0523  -79.5025 C.3       6 UNK        -0.1791 
     42 N         -77.2459   27.2581  -77.6238 N.am      6 UNK        -0.4762 
     43 C         -76.6070   28.2462  -76.9795 C.2       6 UNK         0.5007 
     44 O         -75.7220   28.9349  -77.4869 O.2       6 UNK        -0.5032 
     45 CA        -77.0524   28.5207  -75.5297 C.3       5 UNK         0.0783 
     46 C46       -78.2070   29.5573  -75.4745 C.3       11 UNK        -0.0857 
     47 S47       -77.5403   31.2632  -75.4252 S.3       11 UNK        -0.2512 
     48 C48       -77.9163   31.8782  -73.7434 C.3       11 UNK         0.0225 
     49 N         -77.3711   27.2698  -74.8317 N.am      5 UNK        -0.4615 
     50 C         -76.4233   26.5151  -74.2605 C.2       4 UNK         0.5053 
     51 O         -75.2356   26.8307  -74.2291 O.2       4 UNK        -0.5105 
     52 CA        -76.8423   25.1570  -73.6805 C.3       4 UNK         0.0263 
     53 CB        -77.7695   25.3230  -72.4670 C.3       4 UNK        -0.1981 
     54 N         -77.4674   24.2846  -74.6743 N.am      4 UNK        -0.4224 
     55 C         -76.9269   23.8968  -75.8369 C.2       3 UNK         0.4895 
     56 O         -75.8076   24.2431  -76.2160 O.2       3 UNK        -0.5091 
     57 CA        -77.7783   23.0023  -76.7601 C.3       3 UNK         0.0250 
     58 CB        -77.6224   21.5154  -76.3890 C.3       3 UNK        -0.1996 
     59 N         -79.1925   23.4042  -76.8549 N.am      3 UNK        -0.4254 
     60 C         -80.1237   23.3971  -75.8914 C.2       2 UNK         0.5004 
     61 O         -79.9512   22.9257  -74.7643 O.2       2 UNK        -0.5226 
     62 CA        -81.4509   24.1009  -76.2163 C.3       2 UNK         0.0269 
     63 CB        -82.5532   23.0727  -76.5138 C.3       2 UNK        -0.1926 
     64 N         -81.8694   24.9512  -75.0995 N.am      2 UNK        -0.4687 
     65 C         -81.1785   25.9951  -74.6199 C.2       1 UNK         0.5165 
     66 O         -80.1460   26.4284  -75.1436 O.2       1 UNK        -0.5079 
     67 H67       -81.1720   24.0920  -70.2280 H         1 UNK         0.0900 
     68 H68       -81.8538   22.7186  -71.1019 H         1 UNK         0.0900 
     69 H69       -82.8894   23.7149  -70.0749 H         1 UNK         0.0900 
     70 H70       -80.7850   25.8216  -71.5836 H         1 UNK         0.2959 
     71 H71       -82.7660   26.8265  -73.4549 H         1 UNK         0.1079 
     72 H72       -81.1422   28.6567  -73.8183 H         1 UNK         0.0837 
     73 H73       -79.9276   27.8079  -72.9071 H         1 UNK         0.0837 
     74 H74       -80.3876   29.4175  -69.5161 H         1 UNK         0.0685 
     75 H75       -79.9933   27.7940  -70.0301 H         1 UNK         0.0685 
     76 H76       -79.9010   30.8598  -72.2097 H         1 UNK         0.1434 
     77 H77       -75.6844   30.5272  -72.8928 H         1 UNK         0.1329 
     78 H78       -77.6054   27.9524  -70.0526 H         1 UNK         0.1335 
     79 H79       -75.3113   27.5935  -70.5589 H         1 UNK         0.0680 
     80 H80       -74.7430   28.1832  -72.1010 H         1 UNK         0.0680 
     81 H81       -72.7176   27.5367  -70.4442 H         1 UNK         0.1032 
     82 H82       -71.9597   28.7303  -69.4287 H         1 UNK         0.1032 
     83 H83       -71.3871   30.0971  -71.4596 H         1 UNK         0.0461 
     84 H84       -68.6784   27.3069  -72.3164 H         1 UNK         0.3453 
     85 H85       -70.0893   27.5745  -73.3093 H         1 UNK         0.3453 
     86 H86       -72.7974   27.9830  -72.9269 H         1 UNK         0.2984 
     87 H87       -73.6957   29.3584  -75.1813 H         1 UNK         0.0554 
     88 H88       -72.6083   29.2457  -77.4227 H         1 UNK         0.0847 
     89 H89       -71.0160   29.2858  -76.6648 H         1 UNK         0.0847 
     90 H90       -72.0931   30.6705  -76.5372 H         1 UNK         0.0847 
     91 H91       -73.7027   27.1605  -75.3533 H         1 UNK         0.3141 
     92 H92       -71.2040   24.6566  -75.8426 H         1 UNK         0.0743 
     93 H93       -73.5684   24.9393  -73.9220 H         1 UNK         0.0784 
     94 H94       -72.7872   23.4409  -74.4083 H         1 UNK         0.0784 
     95 H95       -71.9056   24.6242  -73.4560 H         1 UNK         0.0784 
     96 H96       -74.0334   24.6982  -76.3851 H         1 UNK         0.3213 
     97 H97       -73.4938   25.2229  -79.9298 H         1 UNK         0.0855 
     98 H98       -74.8846   23.1717  -79.8824 H         1 UNK         0.0814 
     99 H99       -74.5464   22.9479  -78.1683 H         1 UNK         0.0814 
    100 H100      -73.2475   22.8339  -79.3453 H         1 UNK         0.0814 
    101 H101      -75.5382   25.3960  -77.7422 H         1 UNK         0.3105 
    102 H102      -77.2519   27.9378  -79.5786 H         1 UNK         0.0547 
    103 H103      -78.2325   25.9054  -80.5833 H         1 UNK         0.0837 
    104 H104      -78.1693   25.0688  -79.0433 H         1 UNK         0.0837 
    105 H105      -79.2324   26.4631  -79.2536 H         1 UNK         0.0837 
    106 H106      -77.9545   26.7447  -77.1202 H         1 UNK         0.3020 
    107 H107      -76.1916   28.9644  -75.0239 H         1 UNK         0.1245 
    108 H108      -78.8363   29.3867  -74.6027 H         1 UNK         0.0781 
    109 H109      -78.8816   29.4612  -76.3276 H         1 UNK         0.0781 
    110 H110      -78.9187   32.3089  -73.7543 H         1 UNK         0.0836 
    111 H111      -77.2387   32.7004  -73.5092 H         1 UNK         0.0836 
    112 H112      -78.3350   26.9465  -74.8602 H         1 UNK         0.3022 
    113 H113      -75.9356   24.6541  -73.3395 H         1 UNK         0.0747 
    114 H114      -77.9818   24.3625  -71.9972 H         1 UNK         0.0793 
    115 H115      -77.3101   25.9593  -71.7100 H         1 UNK         0.0793 
    116 H116      -78.7195   25.7750  -72.7445 H         1 UNK         0.0793 
    117 H117      -78.3933   23.9228  -74.4595 H         1 UNK         0.3047 
    118 H118      -77.3693   23.1232  -77.7645 H         1 UNK         0.0822 
    119 H119      -78.1765   20.8755  -77.0757 H         1 UNK         0.0807 
    120 H120      -77.9713   21.3036  -75.3780 H         1 UNK         0.0807 
    121 H121      -76.5754   21.2126  -76.4376 H         1 UNK         0.0807 
    122 H122      -79.4551   23.8071  -77.7433 H         1 UNK         0.2946 
    123 H123      -81.3165   24.7405  -77.0914 H         1 UNK         0.1144 
    124 H124      -83.4926   23.5614  -76.7732 H         1 UNK         0.0793 
    125 H125      -82.7386   22.4227  -75.6574 H         1 UNK         0.0793 
    126 H126      -82.2770   22.4347  -77.3545 H         1 UNK         0.0793 
    127 H127      -82.6412   24.6143  -74.5326 H         1 UNK         0.2896 
@<TRIPOS>BOND
     1    1    2 1    
     2    1   67 1    
     3    1   68 1    
     4    1   69 1    
     5    2    3 2    
     6    2    4 am   BACKBONE|DICT|INTERRES
     7    4    5 1    
     8    4   70 1    
     9    5    6 1    
    10    5   65 1    
    11    5   71 1    
    12    6    7 1    
    13    6   72 1    
    14    6   73 1    
    15    7    8 1    
    16    8    9 1    
    17    8   74 1    
    18    8   75 1    
    19    9   10 ar   
    20    9   14 ar   
    21   10   11 ar   
    22   10   76 1    
    23   11   12 ar   
    24   11   48 1    
    25   12   13 ar   
    26   12   77 1    
    27   13   14 ar   
    28   13   15 1    
    29   14   78 1    
    30   15   16 1    
    31   15   79 1    
    32   15   80 1    
    33   16   17 1    
    34   17   18 1    
    35   17   81 1    
    36   17   82 1    
    37   18   19 1    
    38   18   22 1    
    39   18   83 1    
    40   19   20 am   BACKBONE|DICT|INTERRES
    41   19   21 2    
    42   20   84 1    
    43   20   85 1    
    44   22   23 am   BACKBONE|DICT|INTERRES
    45   22   86 1    
    46   23   24 2    
    47   23   25 1    
    48   25   26 1    
    49   25   27 1    
    50   25   87 1    
    51   26   88 1    
    52   26   89 1    
    53   26   90 1    
    54   27   28 am   BACKBONE|DICT|INTERRES
    55   27   91 1    
    56   28   29 2    
    57   28   30 1    
    58   30   31 1    
    59   30   32 1    
    60   30   92 1    
    61   31   93 1    
    62   31   94 1    
    63   31   95 1    
    64   32   33 am   BACKBONE|DICT|INTERRES
    65   32   96 1    
    66   33   34 2    
    67   33   35 1    
    68   35   36 1    
    69   35   37 1    
    70   35   97 1    
    71   36   98 1    
    72   36   99 1    
    73   36  100 1    
    74   37   38 am   BACKBONE|DICT|INTERRES
    75   37  101 1    
    76   38   39 2    
    77   38   40 1    
    78   40   41 1    
    79   40   42 1    
    80   40  102 1    
    81   41  103 1    
    82   41  104 1    
    83   41  105 1    
    84   42   43 am   BACKBONE|DICT|INTERRES
    85   42  106 1    
    86   43   44 2    
    87   43   45 1    
    88   45   46 1    
    89   45   49 1    
    90   45  107 1    
    91   46   47 1    
    92   46  108 1    
    93   46  109 1    
    94   47   48 1    
    95   48  110 1    
    96   48  111 1    
    97   49   50 am   BACKBONE|DICT|INTERRES
    98   49  112 1    
    99   50   51 2    
   100   50   52 1    
   101   52   53 1    
   102   52   54 1    
   103   52  113 1    
   104   53  114 1    
   105   53  115 1    
   106   53  116 1    
   107   54   55 am   BACKBONE|DICT|INTERRES
   108   54  117 1    
   109   55   56 2    
   110   55   57 1    
   111   57   58 1    
   112   57   59 1    
   113   57  118 1    
   114   58  119 1    
   115   58  120 1    
   116   58  121 1    
   117   59   60 am   BACKBONE|DICT|INTERRES
   118   59  122 1    
   119   60   61 2    
   120   60   62 1    
   121   62   63 1    
   122   62   64 1    
   123   62  123 1    
   124   63  124 1    
   125   63  125 1    
   126   63  126 1    
   127   64   65 am   BACKBONE|DICT|INTERRES
   128   64  127 1    
   129   65   66 2    
@<TRIPOS>SUBSTRUCTURE
     1 UNK         1 GROUP             0       ****    0 ROOT    
