@<TRIPOS>MOLECULE
3R135
127   129    1
SMALL
USER_CHARGES


@<TRIPOS>ATOM
      1 CA        -81.9167   21.6434  -72.8979 C.3       0 UNK        -0.1998 
      2 C         -81.4891   23.0933  -73.0595 C.2       0 UNK         0.4909 
      3 O         -80.8706   23.4269  -74.0698 O.2       0 UNK        -0.5240 
      4 N         -81.8398   23.9462  -72.0838 N.am      1 UNK        -0.4739 
      5 CA        -81.4999   25.3748  -71.9333 C.3       1 UNK         0.0864 
      6 C6        -80.1956   25.6182  -71.1191 C.3       11 UNK        -0.0881 
      7 S7        -78.6573   25.0246  -71.9016 S.3       11 UNK        -0.2682 
      8 C8        -77.3746   25.7504  -70.8199 C.3       11 UNK         0.0289 
      9 C9        -77.0078   27.2128  -71.0907 C.ar      11 UNK        -0.0687 
     10 C10       -77.7747   28.0507  -71.9100 C.ar      11 UNK        -0.0823 
     11 C11       -77.3940   29.3737  -72.1407 C.ar      11 UNK        -0.0830 
     12 C12       -76.2572   29.8818  -71.5120 C.ar      11 UNK        -0.1021 
     13 C13       -75.4619   29.0568  -70.7155 C.ar      11 UNK        -0.0753 
     14 C14       -75.8466   27.7284  -70.5033 C.ar      11 UNK        -0.0933 
     15 C15       -74.1777   29.5955  -70.1037 C.3       11 UNK         0.0166 
     16 S16       -72.8017   29.5602  -71.2995 S.3       11 UNK        -0.2615 
     17 C17       -73.0271   31.1230  -72.2244 C.3       11 UNK        -0.0865 
     18 CA        -73.6346   30.9444  -73.6493 C.3       10 UNK         0.0862 
     19 C         -73.9575   32.3040  -74.3392 C.2       10 UNK         0.5551 
     20 N         -73.8488   32.4187  -75.6574 N.am      10 UNK        -0.7319 
     21 O         -74.3402   33.2649  -73.6758 O.2       10 UNK        -0.5018 
     22 N         -72.9034   29.9885  -74.4947 N.am      10 UNK        -0.4509 
     23 C         -71.6269   30.0676  -74.8912 C.2       10 UNK         0.4899 
     24 O         -70.8639   30.9893  -74.5971 O.2       10 UNK        -0.4839 
     25 CA        -71.1390   28.9073  -75.7799 C.3       9 UNK         0.0222 
     26 CB        -69.6088   28.8847  -75.9806 C.3       9 UNK        -0.1966 
     27 N         -71.6439   27.6133  -75.3070 N.am      9 UNK        -0.4218 
     28 C         -71.3667   26.9949  -74.1478 C.2       9 UNK         0.5020 
     29 O         -70.5208   27.3802  -73.3400 O.2       9 UNK        -0.5274 
     30 CA        -72.1830   25.7296  -73.8205 C.3       8 UNK         0.0270 
     31 CB        -73.2866   26.0600  -72.8000 C.3       8 UNK        -0.1976 
     32 N         -72.7991   25.1106  -74.9965 N.am      8 UNK        -0.4313 
     33 C         -72.1384   24.4753  -75.9736 C.2       8 UNK         0.5041 
     34 O         -70.9238   24.2725  -75.9637 O.2       8 UNK        -0.5577 
     35 CA        -72.9728   24.0205  -77.1821 C.3       7 UNK         0.0284 
     36 CB        -73.6706   22.6803  -76.8958 C.3       7 UNK        -0.1958 
     37 N         -73.9653   25.0241  -77.5797 N.am      7 UNK        -0.4454 
     38 C         -73.6739   26.1855  -78.1833 C.2       7 UNK         0.5089 
     39 O         -72.5338   26.5304  -78.4916 O.2       7 UNK        -0.5125 
     40 CA        -74.8503   27.1335  -78.4759 C.3       6 UNK         0.0408 
     41 CB        -75.5086   26.7776  -79.8178 C.3       6 UNK        -0.1791 
     42 N         -75.8655   27.1291  -77.4208 N.am      6 UNK        -0.4762 
     43 C         -75.6811   27.6261  -76.1876 C.2       6 UNK         0.5007 
     44 O         -74.6339   28.1572  -75.8157 O.2       6 UNK        -0.5032 
     45 CA        -76.8394   27.4301  -75.1851 C.3       5 UNK         0.0783 
     46 C46       -77.9355   28.5157  -75.3486 C.3       11 UNK        -0.0857 
     47 S47       -77.4380   30.1763  -74.7748 S.3       11 UNK        -0.2512 
     48 C48       -78.1791   30.2401  -73.1107 C.3       11 UNK         0.0225 
     49 N         -77.4276   26.0885  -75.2810 N.am      5 UNK        -0.4615 
     50 C         -76.7644   24.9280  -75.1813 C.2       4 UNK         0.5053 
     51 O         -75.5746   24.8550  -74.8809 O.2       4 UNK        -0.5105 
     52 CA        -77.5123   23.6352  -75.5557 C.3       4 UNK         0.0263 
     53 CB        -77.4744   22.5866  -74.4319 C.3       4 UNK        -0.1981 
     54 N         -78.8958   23.8475  -75.9888 N.am      4 UNK        -0.4224 
     55 C         -79.2523   24.3065  -77.1963 C.2       3 UNK         0.4895 
     56 O         -78.4438   24.6694  -78.0519 O.2       3 UNK        -0.5091 
     57 CA        -80.7533   24.3923  -77.4926 C.3       3 UNK         0.0250 
     58 CB        -81.3297   22.9895  -77.7496 C.3       3 UNK        -0.1996 
     59 N         -81.4889   25.0204  -76.3923 N.am      3 UNK        -0.4254 
     60 C         -82.0986   26.2116  -76.4667 C.2       2 UNK         0.5004 
     61 O         -82.0341   26.9510  -77.4496 O.2       2 UNK        -0.5226 
     62 CA        -82.9617   26.6545  -75.2705 C.3       2 UNK         0.0269 
     63 CB        -84.4537   26.4728  -75.5968 C.3       2 UNK        -0.1926 
     64 N         -82.6634   25.9410  -74.0264 N.am      2 UNK        -0.4687 
     65 C         -81.6425   26.2395  -73.2117 C.2       1 UNK         0.5165 
     66 O         -80.8613   27.1648  -73.4337 O.2       1 UNK        -0.5079 
     67 H67       -82.5627   21.3492  -73.7251 H         1 UNK         0.0900 
     68 H68       -82.4577   21.4765  -71.9663 H         1 UNK         0.0900 
     69 H69       -81.0404   20.9954  -72.9028 H         1 UNK         0.0900 
     70 H70       -82.3775   23.5728  -71.3138 H         1 UNK         0.2959 
     71 H71       -82.2999   25.7612  -71.2994 H         1 UNK         0.1079 
     72 H72       -80.0940   26.6783  -70.8826 H         1 UNK         0.0837 
     73 H73       -80.2812   25.1194  -70.1527 H         1 UNK         0.0837 
     74 H74       -77.6833   25.6457  -69.7790 H         1 UNK         0.0685 
     75 H75       -76.4756   25.1433  -70.9368 H         1 UNK         0.0685 
     76 H76       -78.6545   27.6758  -72.4069 H         1 UNK         0.1434 
     77 H77       -75.9661   30.9088  -71.6820 H         1 UNK         0.1329 
     78 H78       -75.2317   27.0884  -69.8851 H         1 UNK         0.1335 
     79 H79       -74.3295   30.6076  -69.7260 H         1 UNK         0.0680 
     80 H80       -73.8978   28.9917  -69.2391 H         1 UNK         0.0680 
     81 H81       -72.0554   31.6140  -72.2928 H         1 UNK         0.1032 
     82 H82       -73.6458   31.7947  -71.6278 H         1 UNK         0.1032 
     83 H83       -74.6092   30.4774  -73.5289 H         1 UNK         0.0461 
     84 H84       -73.5563   31.6307  -76.2122 H         1 UNK         0.3453 
     85 H85       -74.0697   33.2971  -76.0987 H         1 UNK         0.3453 
     86 H86       -73.4664   29.2199  -74.8523 H         1 UNK         0.2984 
     87 H87       -71.5939   29.0631  -76.7592 H         1 UNK         0.0554 
     88 H88       -69.3037   28.0473  -76.6081 H         1 UNK         0.0847 
     89 H89       -69.0742   28.8081  -75.0336 H         1 UNK         0.0847 
     90 H90       -69.2679   29.7978  -76.4698 H         1 UNK         0.0847 
     91 H91       -72.3793   27.2092  -75.8714 H         1 UNK         0.3141 
     92 H92       -71.5026   25.0030  -73.3718 H         1 UNK         0.0743 
     93 H93       -73.8551   25.1719  -72.5235 H         1 UNK         0.0784 
     94 H94       -72.8616   26.4715  -71.8837 H         1 UNK         0.0784 
     95 H95       -73.9895   26.7979  -73.1902 H         1 UNK         0.0784 
     96 H96       -73.8176   25.1493  -75.0461 H         1 UNK         0.3213 
     97 H97       -72.2881   23.8721  -78.0203 H         1 UNK         0.0855 
     98 H98       -72.9393   21.9087  -76.6513 H         1 UNK         0.0814 
     99 H99       -74.2308   22.3303  -77.7629 H         1 UNK         0.0814 
    100 H100      -74.3603   22.7487  -76.0544 H         1 UNK         0.0814 
    101 H101      -74.9258   24.8440  -77.3285 H         1 UNK         0.3105 
    102 H102      -74.4486   28.1462  -78.5530 H         1 UNK         0.0547 
    103 H103      -74.7755   26.7822  -80.6257 H         1 UNK         0.0837 
    104 H104      -75.9646   25.7868  -79.7961 H         1 UNK         0.0837 
    105 H105      -76.2837   27.4970  -80.0823 H         1 UNK         0.0837 
    106 H106      -76.7467   26.6810  -77.6356 H         1 UNK         0.3020 
    107 H107      -76.4030   27.5088  -74.1881 H         1 UNK         0.1245 
    108 H108      -78.8323   28.2258  -74.8005 H         1 UNK         0.0781 
    109 H109      -78.2519   28.5930  -76.3907 H         1 UNK         0.0781 
    110 H110      -79.2249   29.9305  -73.1523 H         1 UNK         0.0836 
    111 H111      -78.1808   31.2744  -72.7635 H         1 UNK         0.0836 
    112 H112      -78.4090   26.0437  -75.5107 H         1 UNK         0.3022 
    113 H113      -76.9615   23.2127  -76.3985 H         1 UNK         0.0747 
    114 H114      -76.4654   22.4597  -74.0378 H         1 UNK         0.0793 
    115 H115      -78.1208   22.8564  -73.5996 H         1 UNK         0.0793 
    116 H116      -77.8023   21.6133  -74.7964 H         1 UNK         0.0793 
    117 H117      -79.6212   23.6185  -75.3083 H         1 UNK         0.3047 
    118 H118      -80.8693   24.9711  -78.4116 H         1 UNK         0.0822 
    119 H119      -82.3782   23.0430  -78.0432 H         1 UNK         0.0807 
    120 H120      -81.2635   22.3538  -76.8656 H         1 UNK         0.0807 
    121 H121      -80.7932   22.4871  -78.5557 H         1 UNK         0.0807 
    122 H122      -81.5272   24.5042  -75.5174 H         1 UNK         0.2946 
    123 H123      -82.7751   27.7206  -75.1188 H         1 UNK         0.1144 
    124 H124      -85.0850   26.8494  -74.7918 H         1 UNK         0.0793 
    125 H125      -84.7066   25.4246  -75.7615 H         1 UNK         0.0793 
    126 H126      -84.7258   27.0195  -76.5010 H         1 UNK         0.0793 
    127 H127      -83.2594   25.1616  -73.7865 H         1 UNK         0.2896 
@<TRIPOS>BOND
     1    1    2 1    
     2    1   67 1    
     3    1   68 1    
     4    1   69 1    
     5    2    3 2    
     6    2    4 am   BACKBONE|DICT|INTERRES
     7    4    5 1    
     8    4   70 1    
     9    5    6 1    
    10    5   65 1    
    11    5   71 1    
    12    6    7 1    
    13    6   72 1    
    14    6   73 1    
    15    7    8 1    
    16    8    9 1    
    17    8   74 1    
    18    8   75 1    
    19    9   10 ar   
    20    9   14 ar   
    21   10   11 ar   
    22   10   76 1    
    23   11   12 ar   
    24   11   48 1    
    25   12   13 ar   
    26   12   77 1    
    27   13   14 ar   
    28   13   15 1    
    29   14   78 1    
    30   15   16 1    
    31   15   79 1    
    32   15   80 1    
    33   16   17 1    
    34   17   18 1    
    35   17   81 1    
    36   17   82 1    
    37   18   19 1    
    38   18   22 1    
    39   18   83 1    
    40   19   20 am   BACKBONE|DICT|INTERRES
    41   19   21 2    
    42   20   84 1    
    43   20   85 1    
    44   22   23 am   BACKBONE|DICT|INTERRES
    45   22   86 1    
    46   23   24 2    
    47   23   25 1    
    48   25   26 1    
    49   25   27 1    
    50   25   87 1    
    51   26   88 1    
    52   26   89 1    
    53   26   90 1    
    54   27   28 am   BACKBONE|DICT|INTERRES
    55   27   91 1    
    56   28   29 2    
    57   28   30 1    
    58   30   31 1    
    59   30   32 1    
    60   30   92 1    
    61   31   93 1    
    62   31   94 1    
    63   31   95 1    
    64   32   33 am   BACKBONE|DICT|INTERRES
    65   32   96 1    
    66   33   34 2    
    67   33   35 1    
    68   35   36 1    
    69   35   37 1    
    70   35   97 1    
    71   36   98 1    
    72   36   99 1    
    73   36  100 1    
    74   37   38 am   BACKBONE|DICT|INTERRES
    75   37  101 1    
    76   38   39 2    
    77   38   40 1    
    78   40   41 1    
    79   40   42 1    
    80   40  102 1    
    81   41  103 1    
    82   41  104 1    
    83   41  105 1    
    84   42   43 am   BACKBONE|DICT|INTERRES
    85   42  106 1    
    86   43   44 2    
    87   43   45 1    
    88   45   46 1    
    89   45   49 1    
    90   45  107 1    
    91   46   47 1    
    92   46  108 1    
    93   46  109 1    
    94   47   48 1    
    95   48  110 1    
    96   48  111 1    
    97   49   50 am   BACKBONE|DICT|INTERRES
    98   49  112 1    
    99   50   51 2    
   100   50   52 1    
   101   52   53 1    
   102   52   54 1    
   103   52  113 1    
   104   53  114 1    
   105   53  115 1    
   106   53  116 1    
   107   54   55 am   BACKBONE|DICT|INTERRES
   108   54  117 1    
   109   55   56 2    
   110   55   57 1    
   111   57   58 1    
   112   57   59 1    
   113   57  118 1    
   114   58  119 1    
   115   58  120 1    
   116   58  121 1    
   117   59   60 am   BACKBONE|DICT|INTERRES
   118   59  122 1    
   119   60   61 2    
   120   60   62 1    
   121   62   63 1    
   122   62   64 1    
   123   62  123 1    
   124   63  124 1    
   125   63  125 1    
   126   63  126 1    
   127   64   65 am   BACKBONE|DICT|INTERRES
   128   64  127 1    
   129   65   66 2    
@<TRIPOS>SUBSTRUCTURE
     1 UNK         1 GROUP             0       ****    0 ROOT    
