@<TRIPOS>MOLECULE
3R135
127   129    1
SMALL
USER_CHARGES


@<TRIPOS>ATOM
      1 CA        -82.7289   24.0003  -72.5227 C.3       0 UNK        -0.1998 
      2 C         -81.6428   24.8035  -73.2214 C.2       0 UNK         0.4909 
      3 O         -80.5147   24.3223  -73.3224 O.2       0 UNK        -0.5240 
      4 N         -81.9912   26.0106  -73.6956 N.am      1 UNK        -0.4739 
      5 CA        -81.1533   26.9815  -74.4174 C.3       1 UNK         0.0864 
      6 C6        -79.9727   27.5387  -73.5832 C.3       11 UNK        -0.0881 
      7 S7        -80.5527   28.5401  -72.1750 S.3       11 UNK        -0.2682 
      8 C8        -79.1944   29.7544  -72.0149 C.3       11 UNK         0.0289 
      9 C9        -77.8426   29.1462  -71.6397 C.ar      11 UNK        -0.0687 
     10 C10       -77.7541   28.0190  -70.8155 C.ar      11 UNK        -0.0823 
     11 C11       -76.5145   27.4631  -70.4931 C.ar      11 UNK        -0.0830 
     12 C12       -75.3459   28.0775  -70.9478 C.ar      11 UNK        -0.1021 
     13 C13       -75.4130   29.2198  -71.7502 C.ar      11 UNK        -0.0753 
     14 C14       -76.6634   29.7397  -72.1046 C.ar      11 UNK        -0.0933 
     15 C15       -74.1341   29.8825  -72.2390 C.3       11 UNK         0.0166 
     16 S16       -73.8757   31.4936  -71.4357 S.3       11 UNK        -0.2615 
     17 C17       -72.0858   31.7613  -71.6735 C.3       11 UNK        -0.0865 
     18 CA        -71.7418   32.2810  -73.0931 C.3       10 UNK         0.0862 
     19 C         -70.3763   33.0191  -73.1057 C.2       10 UNK         0.5551 
     20 N         -70.3796   34.3271  -72.8895 N.am      10 UNK        -0.7319 
     21 O         -69.3167   32.4164  -73.2672 O.2       10 UNK        -0.5018 
     22 N         -71.7525   31.1843  -74.0683 N.am      10 UNK        -0.4509 
     23 C         -71.9805   31.3214  -75.3760 C.2       10 UNK         0.4899 
     24 O         -72.3198   32.3842  -75.8977 O.2       10 UNK        -0.4839 
     25 CA        -71.8193   30.0784  -76.2729 C.3       9 UNK         0.0222 
     26 CB        -70.4864   30.1356  -77.0448 C.3       9 UNK        -0.1966 
     27 N         -71.9945   28.7666  -75.6253 N.am      9 UNK        -0.4218 
     28 C         -71.2255   28.1635  -74.7022 C.2       9 UNK         0.5020 
     29 O         -70.2859   28.7224  -74.1362 O.2       9 UNK        -0.5274 
     30 CA        -71.5437   26.6999  -74.3254 C.3       8 UNK         0.0270 
     31 CB        -71.9914   26.5874  -72.8589 C.3       8 UNK        -0.1976 
     32 N         -72.5516   26.0729  -75.1846 N.am      8 UNK        -0.4313 
     33 C         -72.3334   25.6686  -76.4464 C.2       8 UNK         0.5041 
     34 O         -71.2217   25.6729  -76.9765 O.2       8 UNK        -0.5577 
     35 CA        -73.5523   25.2188  -77.2794 C.3       7 UNK         0.0284 
     36 CB        -73.6016   23.6855  -77.3698 C.3       7 UNK        -0.1958 
     37 N         -74.8389   25.7150  -76.7787 N.am      7 UNK        -0.4454 
     38 C         -75.1673   27.0094  -76.6365 C.2       7 UNK         0.5089 
     39 O         -74.4482   27.9352  -77.0121 O.2       7 UNK        -0.5125 
     40 CA        -76.4768   27.3396  -75.8934 C.3       6 UNK         0.0408 
     41 CB        -77.5511   27.7630  -76.9057 C.3       6 UNK        -0.1791 
     42 N         -76.9788   26.2537  -75.0362 N.am      6 UNK        -0.4762 
     43 C         -76.2893   25.7015  -74.0225 C.2       6 UNK         0.5007 
     44 O         -75.1701   26.0935  -73.6907 O.2       6 UNK        -0.5032 
     45 CA        -76.8658   24.4375  -73.3468 C.3       5 UNK         0.0783 
     46 C46       -77.3720   24.6686  -71.9000 C.3       11 UNK        -0.0857 
     47 S47       -76.0122   24.7356  -70.6794 S.3       11 UNK        -0.2512 
     48 C48       -76.4442   26.1886  -69.6660 C.3       11 UNK         0.0225 
     49 N         -77.8631   23.7256  -74.1531 N.am      5 UNK        -0.4615 
     50 C         -77.5799   23.0375  -75.2657 C.2       4 UNK         0.5053 
     51 O         -76.5198   23.1454  -75.8829 O.2       4 UNK        -0.5105 
     52 CA        -78.6129   21.9984  -75.7140 C.3       4 UNK         0.0263 
     53 CB        -78.9580   21.0256  -74.5638 C.3       4 UNK        -0.1981 
     54 N         -79.8257   22.6084  -76.2591 N.am      4 UNK        -0.4224 
     55 C         -80.6972   21.9361  -77.0303 C.2       3 UNK         0.4895 
     56 O         -80.5234   20.7719  -77.3952 O.2       3 UNK        -0.5091 
     57 CA        -81.9959   22.6392  -77.4647 C.3       3 UNK         0.0250 
     58 CB        -83.1474   22.2600  -76.5186 C.3       3 UNK        -0.1996 
     59 N         -81.8900   24.0930  -77.5223 N.am      3 UNK        -0.4254 
     60 C         -81.1754   24.7822  -78.4213 C.2       2 UNK         0.5004 
     61 O         -80.5804   24.2681  -79.3687 O.2       2 UNK        -0.5226 
     62 CA        -81.1024   26.3068  -78.2169 C.3       2 UNK         0.0269 
     63 CB        -82.0510   27.0268  -79.1890 C.3       2 UNK        -0.1926 
     64 N         -81.3984   26.7423  -76.8440 N.am      2 UNK        -0.4687 
     65 C         -80.6769   26.4086  -75.7642 C.2       1 UNK         0.5165 
     66 O         -79.6914   25.6695  -75.8129 O.2       1 UNK        -0.5079 
     67 H67       -82.4803   23.8770  -71.4690 H         1 UNK         0.0900 
     68 H68       -83.7033   24.4837  -72.5889 H         1 UNK         0.0900 
     69 H69       -82.8100   23.0103  -72.9703 H         1 UNK         0.0900 
     70 H70       -82.9452   26.3136  -73.5563 H         1 UNK         0.2959 
     71 H71       -81.8037   27.8275  -74.6470 H         1 UNK         0.1079 
     72 H72       -79.3293   28.1656  -74.2025 H         1 UNK         0.0837 
     73 H73       -79.3404   26.7332  -73.2135 H         1 UNK         0.0837 
     74 H74       -79.1133   30.3097  -72.9508 H         1 UNK         0.0685 
     75 H75       -79.4683   30.4802  -71.2484 H         1 UNK         0.0685 
     76 H76       -78.6542   27.5525  -70.4407 H         1 UNK         0.1434 
     77 H77       -74.3859   27.6521  -70.6895 H         1 UNK         0.1329 
     78 H78       -76.7133   30.6204  -72.7303 H         1 UNK         0.1335 
     79 H79       -74.1838   30.0137  -73.3206 H         1 UNK         0.0680 
     80 H80       -73.2724   29.2461  -72.0392 H         1 UNK         0.0680 
     81 H81       -71.7869   32.4895  -70.9165 H         1 UNK         0.1032 
     82 H82       -71.5315   30.8509  -71.4379 H         1 UNK         0.1032 
     83 H83       -72.5062   33.0058  -73.3824 H         1 UNK         0.0461 
     84 H84       -71.2420   34.8295  -72.7455 H         1 UNK         0.3453 
     85 H85       -69.5027   34.8247  -72.8780 H         1 UNK         0.3453 
     86 H86       -71.3399   30.3074  -73.7679 H         1 UNK         0.2984 
     87 H87       -72.6217   30.1367  -77.0099 H         1 UNK         0.0554 
     88 H88       -70.4096   31.0574  -77.6229 H         1 UNK         0.0847 
     89 H89       -70.3978   29.3056  -77.7459 H         1 UNK         0.0847 
     90 H90       -69.6267   30.1032  -76.3746 H         1 UNK         0.0847 
     91 H91       -72.7828   28.2405  -75.9921 H         1 UNK         0.3141 
     92 H92       -70.6115   26.1410  -74.4312 H         1 UNK         0.0743 
     93 H93       -71.2666   27.0468  -72.1855 H         1 UNK         0.0784 
     94 H94       -72.9501   27.0759  -72.6936 H         1 UNK         0.0784 
     95 H95       -72.0973   25.5451  -72.5575 H         1 UNK         0.0784 
     96 H96       -73.4952   26.0280  -74.8080 H         1 UNK         0.3213 
     97 H97       -73.4186   25.6185  -78.2868 H         1 UNK         0.0855 
     98 H98       -73.7431   23.2294  -76.3891 H         1 UNK         0.0814 
     99 H99       -72.6744   23.2876  -77.7846 H         1 UNK         0.0814 
    100 H100      -74.4145   23.3506  -78.0145 H         1 UNK         0.0814 
    101 H101      -75.4900   25.0155  -76.4383 H         1 UNK         0.3105 
    102 H102      -76.2680   28.1921  -75.2438 H         1 UNK         0.0547 
    103 H103      -78.4276   28.1760  -76.4105 H         1 UNK         0.0837 
    104 H104      -77.1759   28.5374  -77.5763 H         1 UNK         0.0837 
    105 H105      -77.8683   26.9234  -77.5245 H         1 UNK         0.0837 
    106 H106      -77.8883   25.8634  -75.2750 H         1 UNK         0.3020 
    107 H107      -76.0180   23.7514  -73.2763 H         1 UNK         0.1245 
    108 H108      -78.0121   23.8397  -71.5933 H         1 UNK         0.0781 
    109 H109      -78.0041   25.5513  -71.8420 H         1 UNK         0.0781 
    110 H110      -75.6964   26.3075  -68.8807 H         1 UNK         0.0836 
    111 H111      -77.3916   26.0008  -69.1582 H         1 UNK         0.0836 
    112 H112      -78.8105   23.7036  -73.7793 H         1 UNK         0.3022 
    113 H113      -78.1349   21.4209  -76.5086 H         1 UNK         0.0747 
    114 H114      -79.5113   20.1590  -74.9252 H         1 UNK         0.0793 
    115 H115      -78.0544   20.6475  -74.0835 H         1 UNK         0.0793 
    116 H116      -79.5630   21.5063  -73.7940 H         1 UNK         0.0793 
    117 H117      -79.9849   23.5853  -76.0302 H         1 UNK         0.3047 
    118 H118      -82.2430   22.2800  -78.4663 H         1 UNK         0.0822 
    119 H119      -83.2765   21.1775  -76.4756 H         1 UNK         0.0807 
    120 H120      -84.0943   22.6838  -76.8538 H         1 UNK         0.0807 
    121 H121      -82.9639   22.6061  -75.5009 H         1 UNK         0.0807 
    122 H122      -82.3491   24.6130  -76.7895 H         1 UNK         0.2946 
    123 H123      -80.0794   26.6078  -78.4510 H         1 UNK         0.1144 
    124 H124      -81.9413   28.1095  -79.1230 H         1 UNK         0.0793 
    125 H125      -83.0951   26.7807  -78.9915 H         1 UNK         0.0793 
    126 H126      -81.8398   26.7452  -80.2217 H         1 UNK         0.0793 
    127 H127      -82.2027   27.3432  -76.7297 H         1 UNK         0.2896 
@<TRIPOS>BOND
     1    1    2 1    
     2    1   67 1    
     3    1   68 1    
     4    1   69 1    
     5    2    3 2    
     6    2    4 am   BACKBONE|DICT|INTERRES
     7    4    5 1    
     8    4   70 1    
     9    5    6 1    
    10    5   65 1    
    11    5   71 1    
    12    6    7 1    
    13    6   72 1    
    14    6   73 1    
    15    7    8 1    
    16    8    9 1    
    17    8   74 1    
    18    8   75 1    
    19    9   10 ar   
    20    9   14 ar   
    21   10   11 ar   
    22   10   76 1    
    23   11   12 ar   
    24   11   48 1    
    25   12   13 ar   
    26   12   77 1    
    27   13   14 ar   
    28   13   15 1    
    29   14   78 1    
    30   15   16 1    
    31   15   79 1    
    32   15   80 1    
    33   16   17 1    
    34   17   18 1    
    35   17   81 1    
    36   17   82 1    
    37   18   19 1    
    38   18   22 1    
    39   18   83 1    
    40   19   20 am   BACKBONE|DICT|INTERRES
    41   19   21 2    
    42   20   84 1    
    43   20   85 1    
    44   22   23 am   BACKBONE|DICT|INTERRES
    45   22   86 1    
    46   23   24 2    
    47   23   25 1    
    48   25   26 1    
    49   25   27 1    
    50   25   87 1    
    51   26   88 1    
    52   26   89 1    
    53   26   90 1    
    54   27   28 am   BACKBONE|DICT|INTERRES
    55   27   91 1    
    56   28   29 2    
    57   28   30 1    
    58   30   31 1    
    59   30   32 1    
    60   30   92 1    
    61   31   93 1    
    62   31   94 1    
    63   31   95 1    
    64   32   33 am   BACKBONE|DICT|INTERRES
    65   32   96 1    
    66   33   34 2    
    67   33   35 1    
    68   35   36 1    
    69   35   37 1    
    70   35   97 1    
    71   36   98 1    
    72   36   99 1    
    73   36  100 1    
    74   37   38 am   BACKBONE|DICT|INTERRES
    75   37  101 1    
    76   38   39 2    
    77   38   40 1    
    78   40   41 1    
    79   40   42 1    
    80   40  102 1    
    81   41  103 1    
    82   41  104 1    
    83   41  105 1    
    84   42   43 am   BACKBONE|DICT|INTERRES
    85   42  106 1    
    86   43   44 2    
    87   43   45 1    
    88   45   46 1    
    89   45   49 1    
    90   45  107 1    
    91   46   47 1    
    92   46  108 1    
    93   46  109 1    
    94   47   48 1    
    95   48  110 1    
    96   48  111 1    
    97   49   50 am   BACKBONE|DICT|INTERRES
    98   49  112 1    
    99   50   51 2    
   100   50   52 1    
   101   52   53 1    
   102   52   54 1    
   103   52  113 1    
   104   53  114 1    
   105   53  115 1    
   106   53  116 1    
   107   54   55 am   BACKBONE|DICT|INTERRES
   108   54  117 1    
   109   55   56 2    
   110   55   57 1    
   111   57   58 1    
   112   57   59 1    
   113   57  118 1    
   114   58  119 1    
   115   58  120 1    
   116   58  121 1    
   117   59   60 am   BACKBONE|DICT|INTERRES
   118   59  122 1    
   119   60   61 2    
   120   60   62 1    
   121   62   63 1    
   122   62   64 1    
   123   62  123 1    
   124   63  124 1    
   125   63  125 1    
   126   63  126 1    
   127   64   65 am   BACKBONE|DICT|INTERRES
   128   64  127 1    
   129   65   66 2    
@<TRIPOS>SUBSTRUCTURE
     1 UNK         1 GROUP             0       ****    0 ROOT    
