@<TRIPOS>MOLECULE
3R135
127   129    1
SMALL
USER_CHARGES


@<TRIPOS>ATOM
      1 CA        -80.8870   29.3642  -70.8352 C.3       0 UNK        -0.1998 
      2 C         -81.8967   28.5128  -71.5906 C.2       0 UNK         0.4909 
      3 O         -82.8620   28.0317  -70.9978 O.2       0 UNK        -0.5240 
      4 N         -81.6762   28.3186  -72.8971 N.am      1 UNK        -0.4739 
      5 CA        -82.5242   27.5224  -73.7946 C.3       1 UNK         0.0864 
      6 C6        -82.2915   27.9062  -75.2779 C.3       11 UNK        -0.0881 
      7 S7        -80.6239   27.5163  -75.9227 S.3       11 UNK        -0.2682 
      8 C8        -79.7408   29.1120  -75.7794 C.3       11 UNK         0.0289 
      9 C9        -78.6608   29.1764  -74.6938 C.ar      11 UNK        -0.0687 
     10 C10       -78.5472   28.2245  -73.6698 C.ar      11 UNK        -0.0823 
     11 C11       -77.5873   28.3654  -72.6642 C.ar      11 UNK        -0.0830 
     12 C12       -76.7181   29.4562  -72.6951 C.ar      11 UNK        -0.1021 
     13 C13       -76.7795   30.3894  -73.7328 C.ar      11 UNK        -0.0753 
     14 C14       -77.7590   30.2468  -74.7211 C.ar      11 UNK        -0.0933 
     15 C15       -75.8096   31.5652  -73.7699 C.3       11 UNK         0.0166 
     16 S16       -74.1580   31.0815  -74.3768 S.3       11 UNK        -0.2615 
     17 C17       -73.4711   30.2265  -72.9157 C.3       11 UNK        -0.0865 
     18 CA        -71.9420   30.4045  -72.7307 C.3       10 UNK         0.0862 
     19 C         -71.4997   29.7000  -71.4125 C.2       10 UNK         0.5551 
     20 N         -70.9253   28.5024  -71.4611 N.am      10 UNK        -0.7319 
     21 O         -71.6886   30.2515  -70.3313 O.2       10 UNK        -0.5018 
     22 N         -71.2049   29.9658  -73.9227 N.am      10 UNK        -0.4509 
     23 C         -69.8804   30.0534  -74.1046 C.2       10 UNK         0.4899 
     24 O         -69.1358   30.7150  -73.3798 O.2       10 UNK        -0.4839 
     25 CA        -69.2830   29.2521  -75.2832 C.3       9 UNK         0.0222 
     26 CB        -67.9228   28.6212  -74.9196 C.3       9 UNK        -0.1966 
     27 N         -70.1897   28.2333  -75.8363 N.am      9 UNK        -0.4218 
     28 C         -70.7605   27.1943  -75.2070 C.2       9 UNK         0.5020 
     29 O         -70.5492   26.9099  -74.0257 O.2       9 UNK        -0.5274 
     30 CA        -71.8051   26.4045  -76.0223 C.3       8 UNK         0.0270 
     31 CB        -72.4080   25.2320  -75.2270 C.3       8 UNK        -0.1976 
     32 N         -72.8936   27.2688  -76.5009 N.am      8 UNK        -0.4313 
     33 C         -72.8023   28.1347  -77.5230 C.2       8 UNK         0.5041 
     34 O         -71.7645   28.2939  -78.1704 O.2       8 UNK        -0.5577 
     35 CA        -74.0383   28.9960  -77.8544 C.3       7 UNK         0.0284 
     36 CB        -74.0600   29.4638  -79.3254 C.3       7 UNK        -0.1958 
     37 N         -75.3128   28.3724  -77.4878 N.am      7 UNK        -0.4454 
     38 C         -75.8186   27.2205  -77.9506 C.2       7 UNK         0.5089 
     39 O         -75.2761   26.5026  -78.7929 O.2       7 UNK        -0.5125 
     40 CA        -77.1660   26.8018  -77.3397 C.3       6 UNK         0.0408 
     41 CB        -78.1262   26.3045  -78.4337 C.3       6 UNK        -0.1791 
     42 N         -77.0541   25.7849  -76.2882 N.am      6 UNK        -0.4762 
     43 C         -76.2182   25.7967  -75.2332 C.2       6 UNK         0.5007 
     44 O         -75.3895   26.6852  -75.0275 O.2       6 UNK        -0.5032 
     45 CA        -76.2977   24.6076  -74.2431 C.3       5 UNK         0.0783 
     46 C46       -77.0892   24.9671  -72.9626 C.3       11 UNK        -0.0857 
     47 S47       -76.2212   26.0961  -71.8247 S.3       11 UNK        -0.2512 
     48 C48       -77.4955   27.3621  -71.5234 C.3       11 UNK         0.0225 
     49 N         -76.8643   23.3973  -74.8460 N.am      5 UNK        -0.4615 
     50 C         -76.3286   22.7004  -75.8568 C.2       4 UNK         0.5053 
     51 O         -75.2112   22.9266  -76.3197 O.2       4 UNK        -0.5105 
     52 CA        -77.1798   21.5733  -76.4765 C.3       4 UNK         0.0263 
     53 CB        -76.6045   20.1977  -76.1009 C.3       4 UNK        -0.1981 
     54 N         -78.6044   21.6039  -76.1219 N.am      4 UNK        -0.4224 
     55 C         -79.4706   22.5928  -76.3905 C.2       3 UNK         0.4895 
     56 O         -79.1627   23.6283  -76.9791 O.2       3 UNK        -0.5091 
     57 CA        -80.9178   22.4150  -75.8894 C.3       3 UNK         0.0250 
     58 CB        -81.3000   20.9434  -75.6119 C.3       3 UNK        -0.1996 
     59 N         -81.2255   23.2379  -74.7117 N.am      3 UNK        -0.4254 
     60 C         -80.5419   23.3164  -73.5605 C.2       2 UNK         0.5004 
     61 O         -79.4550   22.7670  -73.3694 O.2       2 UNK        -0.5226 
     62 CA        -81.1931   24.1419  -72.4314 C.3       2 UNK         0.0269 
     63 CB        -80.3853   24.1037  -71.1200 C.3       2 UNK        -0.1926 
     64 N         -81.4211   25.5407  -72.8024 N.am      2 UNK        -0.4687 
     65 C         -82.4248   25.9946  -73.5669 C.2       1 UNK         0.5165 
     66 O         -83.2558   25.2507  -74.0919 O.2       1 UNK        -0.5079 
     67 H67       -80.1258   29.7795  -71.4958 H         1 UNK         0.0900 
     68 H68       -80.3866   28.7666  -70.0738 H         1 UNK         0.0900 
     69 H69       -81.3918   30.1934  -70.3402 H         1 UNK         0.0900 
     70 H70       -80.8757   28.7535  -73.3343 H         1 UNK         0.2959 
     71 H71       -83.5602   27.7794  -73.5610 H         1 UNK         0.1079 
     72 H72       -83.0153   27.3875  -75.9096 H         1 UNK         0.0837 
     73 H73       -82.5053   28.9658  -75.4238 H         1 UNK         0.0837 
     74 H74       -80.4517   29.9207  -75.6089 H         1 UNK         0.0685 
     75 H75       -79.2838   29.3212  -76.7475 H         1 UNK         0.0685 
     76 H76       -79.2069   27.3721  -73.6390 H         1 UNK         0.1434 
     77 H77       -75.9874   29.5674  -71.9080 H         1 UNK         0.1329 
     78 H78       -77.8271   30.9815  -75.5121 H         1 UNK         0.1335 
     79 H79       -75.7279   32.0153  -72.7795 H         1 UNK         0.0680 
     80 H80       -76.1979   32.3488  -74.4223 H         1 UNK         0.0680 
     81 H81       -73.9790   30.6021  -72.0260 H         1 UNK         0.1032 
     82 H82       -73.7278   29.1672  -72.9923 H         1 UNK         0.1032 
     83 H83       -71.7378   31.4693  -72.6047 H         1 UNK         0.0461 
     84 H84       -70.6430   28.0555  -70.6037 H         1 UNK         0.3453 
     85 H85       -70.7791   28.0308  -72.3479 H         1 UNK         0.3453 
     86 H86       -71.7349   29.4186  -74.5824 H         1 UNK         0.2984 
     87 H87       -69.1135   29.9726  -76.0844 H         1 UNK         0.0554 
     88 H88       -67.5021   28.0713  -75.7613 H         1 UNK         0.0847 
     89 H89       -68.0089   27.9326  -74.0783 H         1 UNK         0.0847 
     90 H90       -67.1965   29.3853  -74.6399 H         1 UNK         0.0847 
     91 H91       -70.4953   28.3871  -76.7970 H         1 UNK         0.3141 
     92 H92       -71.2887   25.9850  -76.8882 H         1 UNK         0.0743 
     93 H93       -71.6315   24.5383  -74.9024 H         1 UNK         0.0784 
     94 H94       -72.9313   25.5775  -74.3344 H         1 UNK         0.0784 
     95 H95       -73.1154   24.6655  -75.8327 H         1 UNK         0.0784 
     96 H96       -73.7802   27.1930  -76.0055 H         1 UNK         0.3213 
     97 H97       -73.9510   29.8871  -77.2313 H         1 UNK         0.0855 
     98 H98       -74.0742   28.6215  -80.0177 H         1 UNK         0.0814 
     99 H99       -73.1779   30.0609  -79.5601 H         1 UNK         0.0814 
    100 H100      -74.9318   30.0843  -79.5324 H         1 UNK         0.0814 
    101 H101      -75.8177   28.8318  -76.7413 H         1 UNK         0.3105 
    102 H102      -77.6128   27.6815  -76.8807 H         1 UNK         0.0547 
    103 H103      -79.1248   26.1230  -78.0387 H         1 UNK         0.0837 
    104 H104      -78.2253   27.0401  -79.2328 H         1 UNK         0.0837 
    105 H105      -77.7754   25.3754  -78.8847 H         1 UNK         0.0837 
    106 H106      -77.6841   24.9951  -76.3834 H         1 UNK         0.3020 
    107 H107      -75.2710   24.3684  -73.9576 H         1 UNK         0.1245 
    108 H108      -77.2784   24.0595  -72.3870 H         1 UNK         0.0781 
    109 H109      -78.0731   25.3592  -73.2213 H         1 UNK         0.0781 
    110 H110      -77.2486   27.8876  -70.5995 H         1 UNK         0.0836 
    111 H111      -78.4604   26.8868  -71.3439 H         1 UNK         0.0836 
    112 H112      -77.7759   23.1145  -74.4990 H         1 UNK         0.3022 
    113 H113      -77.1133   21.6884  -77.5603 H         1 UNK         0.0747 
    114 H114      -77.1327   19.3922  -76.6115 H         1 UNK         0.0793 
    115 H115      -75.5535   20.1219  -76.3838 H         1 UNK         0.0793 
    116 H116      -76.6666   20.0151  -75.0273 H         1 UNK         0.0793 
    117 H117      -78.9488   20.8163  -75.5923 H         1 UNK         0.3047 
    118 H118      -81.5600   22.7755  -76.6945 H         1 UNK         0.0822 
    119 H119      -81.0883   20.3090  -76.4739 H         1 UNK         0.0807 
    120 H120      -82.3670   20.8525  -75.4074 H         1 UNK         0.0807 
    121 H121      -80.7691   20.5311  -74.7529 H         1 UNK         0.0807 
    122 H122      -82.0755   23.7909  -74.7699 H         1 UNK         0.2946 
    123 H123      -82.1605   23.6763  -72.2278 H         1 UNK         0.1144 
    124 H124      -79.4068   24.5696  -71.2281 H         1 UNK         0.0793 
    125 H125      -80.2215   23.0764  -70.7915 H         1 UNK         0.0793 
    126 H126      -80.9127   24.6168  -70.3155 H         1 UNK         0.0793 
    127 H127      -80.7912   26.2219  -72.4093 H         1 UNK         0.2896 
@<TRIPOS>BOND
     1    1    2 1    
     2    1   67 1    
     3    1   68 1    
     4    1   69 1    
     5    2    3 2    
     6    2    4 am   BACKBONE|DICT|INTERRES
     7    4    5 1    
     8    4   70 1    
     9    5    6 1    
    10    5   65 1    
    11    5   71 1    
    12    6    7 1    
    13    6   72 1    
    14    6   73 1    
    15    7    8 1    
    16    8    9 1    
    17    8   74 1    
    18    8   75 1    
    19    9   10 ar   
    20    9   14 ar   
    21   10   11 ar   
    22   10   76 1    
    23   11   12 ar   
    24   11   48 1    
    25   12   13 ar   
    26   12   77 1    
    27   13   14 ar   
    28   13   15 1    
    29   14   78 1    
    30   15   16 1    
    31   15   79 1    
    32   15   80 1    
    33   16   17 1    
    34   17   18 1    
    35   17   81 1    
    36   17   82 1    
    37   18   19 1    
    38   18   22 1    
    39   18   83 1    
    40   19   20 am   BACKBONE|DICT|INTERRES
    41   19   21 2    
    42   20   84 1    
    43   20   85 1    
    44   22   23 am   BACKBONE|DICT|INTERRES
    45   22   86 1    
    46   23   24 2    
    47   23   25 1    
    48   25   26 1    
    49   25   27 1    
    50   25   87 1    
    51   26   88 1    
    52   26   89 1    
    53   26   90 1    
    54   27   28 am   BACKBONE|DICT|INTERRES
    55   27   91 1    
    56   28   29 2    
    57   28   30 1    
    58   30   31 1    
    59   30   32 1    
    60   30   92 1    
    61   31   93 1    
    62   31   94 1    
    63   31   95 1    
    64   32   33 am   BACKBONE|DICT|INTERRES
    65   32   96 1    
    66   33   34 2    
    67   33   35 1    
    68   35   36 1    
    69   35   37 1    
    70   35   97 1    
    71   36   98 1    
    72   36   99 1    
    73   36  100 1    
    74   37   38 am   BACKBONE|DICT|INTERRES
    75   37  101 1    
    76   38   39 2    
    77   38   40 1    
    78   40   41 1    
    79   40   42 1    
    80   40  102 1    
    81   41  103 1    
    82   41  104 1    
    83   41  105 1    
    84   42   43 am   BACKBONE|DICT|INTERRES
    85   42  106 1    
    86   43   44 2    
    87   43   45 1    
    88   45   46 1    
    89   45   49 1    
    90   45  107 1    
    91   46   47 1    
    92   46  108 1    
    93   46  109 1    
    94   47   48 1    
    95   48  110 1    
    96   48  111 1    
    97   49   50 am   BACKBONE|DICT|INTERRES
    98   49  112 1    
    99   50   51 2    
   100   50   52 1    
   101   52   53 1    
   102   52   54 1    
   103   52  113 1    
   104   53  114 1    
   105   53  115 1    
   106   53  116 1    
   107   54   55 am   BACKBONE|DICT|INTERRES
   108   54  117 1    
   109   55   56 2    
   110   55   57 1    
   111   57   58 1    
   112   57   59 1    
   113   57  118 1    
   114   58  119 1    
   115   58  120 1    
   116   58  121 1    
   117   59   60 am   BACKBONE|DICT|INTERRES
   118   59  122 1    
   119   60   61 2    
   120   60   62 1    
   121   62   63 1    
   122   62   64 1    
   123   62  123 1    
   124   63  124 1    
   125   63  125 1    
   126   63  126 1    
   127   64   65 am   BACKBONE|DICT|INTERRES
   128   64  127 1    
   129   65   66 2    
@<TRIPOS>SUBSTRUCTURE
     1 UNK         1 GROUP             0       ****    0 ROOT    
