@<TRIPOS>MOLECULE
3R135
127   129    1
SMALL
USER_CHARGES


@<TRIPOS>ATOM
      1 CA        -83.2289   25.5797  -71.2402 C.3       0 UNK        -0.1998 
      2 C         -83.6796   26.3009  -72.5010 C.2       0 UNK         0.4909 
      3 O         -84.8401   26.1871  -72.8955 O.2       0 UNK        -0.5240 
      4 N         -82.7641   27.0241  -73.1570 N.am      1 UNK        -0.4739 
      5 CA        -82.9767   27.8059  -74.3850 C.3       1 UNK         0.0864 
      6 C6        -81.9534   28.9703  -74.4827 C.3       11 UNK        -0.0881 
      7 S7        -80.2087   28.4373  -74.3377 S.3       11 UNK        -0.2682 
      8 C8        -79.7129   29.2206  -72.7744 C.3       11 UNK         0.0289 
      9 C9        -78.2507   28.9341  -72.4747 C.ar      11 UNK        -0.0687 
     10 C10       -77.8918   27.9413  -71.5582 C.ar      11 UNK        -0.0823 
     11 C11       -76.5440   27.6705  -71.2968 C.ar      11 UNK        -0.0830 
     12 C12       -75.5541   28.4018  -71.9611 C.ar      11 UNK        -0.1021 
     13 C13       -75.9033   29.3925  -72.8835 C.ar      11 UNK        -0.0753 
     14 C14       -77.2523   29.6596  -73.1290 C.ar      11 UNK        -0.0933 
     15 C15       -74.8337   30.1494  -73.6524 C.3       11 UNK         0.0166 
     16 S16       -74.2673   31.6270  -72.7519 S.3       11 UNK        -0.2615 
     17 C17       -72.7846   30.9962  -71.8901 C.3       11 UNK        -0.0865 
     18 CA        -71.4775   31.2965  -72.6733 C.3       10 UNK         0.0862 
     19 C         -70.2159   30.9080  -71.8465 C.2       10 UNK         0.5551 
     20 N         -69.3335   30.0391  -72.3280 N.am      10 UNK        -0.7319 
     21 O         -70.0302   31.4149  -70.7429 O.2       10 UNK        -0.5018 
     22 N         -71.5183   30.7023  -74.0163 N.am      10 UNK        -0.4509 
     23 C         -70.8588   31.1434  -75.0921 C.2       10 UNK         0.4899 
     24 O         -70.1695   32.1644  -75.1057 O.2       10 UNK        -0.4839 
     25 CA        -71.0018   30.2821  -76.3652 C.3       9 UNK         0.0222 
     26 CB        -69.8299   30.4791  -77.3497 C.3       9 UNK        -0.1966 
     27 N         -71.2092   28.8517  -76.0863 N.am      9 UNK        -0.4218 
     28 C         -70.3903   28.0348  -75.3997 C.2       9 UNK         0.5020 
     29 O         -69.3398   28.4082  -74.8750 O.2       9 UNK        -0.5274 
     30 CA        -70.8218   26.5668  -75.2162 C.3       8 UNK         0.0270 
     31 CB        -71.1534   26.2928  -73.7390 C.3       8 UNK        -0.1976 
     32 N         -71.9635   26.1783  -76.0509 N.am      8 UNK        -0.4313 
     33 C         -71.8985   25.9833  -77.3780 C.2       8 UNK         0.5041 
     34 O         -70.8485   26.0506  -78.0183 O.2       8 UNK        -0.5577 
     35 CA        -73.2063   25.6831  -78.1365 C.3       7 UNK         0.0284 
     36 CB        -73.2324   24.2184  -78.6030 C.3       7 UNK        -0.1958 
     37 N         -74.4240   25.9727  -77.3733 N.am      7 UNK        -0.4454 
     38 C         -74.8364   27.2020  -77.0242 C.2       7 UNK         0.5089 
     39 O         -74.2294   28.2316  -77.3229 O.2       7 UNK        -0.5125 
     40 CA        -76.1041   27.3028  -76.1507 C.3       6 UNK         0.0408 
     41 CB        -77.3415   27.5131  -77.0354 C.3       6 UNK        -0.1791 
     42 N         -76.3320   26.1492  -75.2729 N.am      6 UNK        -0.4762 
     43 C         -75.4496   25.6585  -74.3872 C.2       6 UNK         0.5007 
     44 O         -74.3395   26.1560  -74.1958 O.2       6 UNK        -0.5032 
     45 CA        -75.8206   24.3373  -73.6723 C.3       5 UNK         0.0783 
     46 C46       -76.4498   24.5759  -72.2765 C.3       11 UNK        -0.0857 
     47 S47       -75.2526   25.2016  -71.0484 S.3       11 UNK        -0.2512 
     48 C48       -76.1604   26.5910  -70.2920 C.3       11 UNK         0.0225 
     49 N         -76.6790   23.4566  -74.4758 N.am      5 UNK        -0.4615 
     50 C         -76.4432   23.0198  -75.7220 C.2       4 UNK         0.5053 
     51 O         -75.4322   23.3041  -76.3629 O.2       4 UNK        -0.5105 
     52 CA        -77.5207   22.1366  -76.3811 C.3       4 UNK         0.0263 
     53 CB        -77.0206   20.6883  -76.5075 C.3       4 UNK        -0.1981 
     54 N         -78.8140   22.1384  -75.6856 N.am      4 UNK        -0.4224 
     55 C         -79.6422   23.1885  -75.5984 C.2       3 UNK         0.4895 
     56 O         -79.4015   24.2967  -76.0828 O.2       3 UNK        -0.5091 
     57 CA        -80.9085   22.9711  -74.7538 C.3       3 UNK         0.0250 
     58 CB        -80.6116   23.2583  -73.2712 C.3       3 UNK        -0.1996 
     59 N         -82.0166   23.8242  -75.1780 N.am      3 UNK        -0.4254 
     60 C         -82.6979   23.7179  -76.3278 C.2       2 UNK         0.5004 
     61 O         -82.4896   22.8408  -77.1674 O.2       2 UNK        -0.5226 
     62 CA        -83.8260   24.7420  -76.5696 C.3       2 UNK         0.0269 
     63 CB        -85.2007   24.0541  -76.5221 C.3       2 UNK        -0.1926 
     64 N         -83.8118   25.8318  -75.5881 N.am      2 UNK        -0.4687 
     65 C         -83.0216   26.9109  -75.6499 C.2       1 UNK         0.5165 
     66 O         -82.3350   27.1791  -76.6370 O.2       1 UNK        -0.5079 
     67 H67       -83.4133   24.5098  -71.3334 H         1 UNK         0.0900 
     68 H68       -82.1666   25.7248  -71.0442 H         1 UNK         0.0900 
     69 H69       -83.7865   25.9476  -70.3794 H         1 UNK         0.0900 
     70 H70       -81.8168   27.0569  -72.8073 H         1 UNK         0.2959 
     71 H71       -83.9671   28.2629  -74.3219 H         1 UNK         0.1079 
     72 H72       -82.0742   29.5173  -75.4197 H         1 UNK         0.0837 
     73 H73       -82.1685   29.6994  -73.7000 H         1 UNK         0.0837 
     74 H74       -79.8697   30.2984  -72.8407 H         1 UNK         0.0685 
     75 H75       -80.3504   28.8609  -71.9653 H         1 UNK         0.0685 
     76 H76       -78.6632   27.3765  -71.0528 H         1 UNK         0.1434 
     77 H77       -74.5127   28.1787  -71.7761 H         1 UNK         0.1329 
     78 H78       -77.5284   30.4199  -73.8468 H         1 UNK         0.1335 
     79 H79       -74.0000   29.4841  -73.8782 H         1 UNK         0.0680 
     80 H80       -75.2282   30.4668  -74.6190 H         1 UNK         0.0680 
     81 H81       -72.7550   31.4728  -70.9083 H         1 UNK         0.1032 
     82 H82       -72.8868   29.9273  -71.6983 H         1 UNK         0.1032 
     83 H83       -71.4193   32.3797  -72.7969 H         1 UNK         0.0461 
     84 H84       -69.4521   29.6167  -73.2422 H         1 UNK         0.3453 
     85 H85       -68.5234   29.8084  -71.7754 H         1 UNK         0.3453 
     86 H86       -72.0377   29.8436  -74.1030 H         1 UNK         0.2984 
     87 H87       -71.9106   30.6264  -76.8610 H         1 UNK         0.0554 
     88 H88       -69.7575   31.5187  -77.6714 H         1 UNK         0.0847 
     89 H89       -69.9587   29.8728  -78.2463 H         1 UNK         0.0847 
     90 H90       -68.8737   30.2116  -76.8986 H         1 UNK         0.0847 
     91 H91       -72.0628   28.4558  -76.4623 H         1 UNK         0.3141 
     92 H92       -69.9700   25.9420  -75.4931 H         1 UNK         0.0743 
     93 H93       -70.2824   26.4650  -73.1050 H         1 UNK         0.0784 
     94 H94       -71.9501   26.9428  -73.3752 H         1 UNK         0.0784 
     95 H95       -71.4665   25.2601  -73.5843 H         1 UNK         0.0784 
     96 H96       -72.8623   26.1076  -75.5812 H         1 UNK         0.3213 
     97 H97       -73.2149   26.3205  -79.0233 H         1 UNK         0.0855 
     98 H98       -73.1708   23.5268  -77.7620 H         1 UNK         0.0814 
     99 H99       -72.3889   24.0038  -79.2605 H         1 UNK         0.0814 
    100 H100      -74.1422   23.9916  -79.1591 H         1 UNK         0.0814 
    101 H101      -74.9473   25.1683  -77.0401 H         1 UNK         0.3105 
    102 H102      -75.9900   28.1780  -75.5109 H         1 UNK         0.0547 
    103 H103      -78.2348   27.6823  -76.4351 H         1 UNK         0.0837 
    104 H104      -77.2179   28.3835  -77.6813 H         1 UNK         0.0837 
    105 H105      -77.5299   26.6518  -77.6775 H         1 UNK         0.0837 
    106 H106      -77.2121   25.6638  -75.3863 H         1 UNK         0.3020 
    107 H107      -74.8830   23.7943  -73.5331 H         1 UNK         0.1245 
    108 H108      -76.8351   23.6364  -71.8770 H         1 UNK         0.0781 
    109 H109      -77.3133   25.2382  -72.3525 H         1 UNK         0.0781 
    110 H110      -75.5367   27.0364  -69.5158 H         1 UNK         0.0836 
    111 H111      -77.0433   26.1993  -69.7843 H         1 UNK         0.0836 
    112 H112      -77.5402   23.1641  -74.0409 H         1 UNK         0.3022 
    113 H113      -77.6824   22.5308  -77.3867 H         1 UNK         0.0747 
    114 H114      -77.7328   20.0676  -77.0516 H         1 UNK         0.0793 
    115 H115      -76.0767   20.6466  -77.0534 H         1 UNK         0.0793 
    116 H116      -76.8519   20.2320  -75.5312 H         1 UNK         0.0793 
    117 H117      -79.0833   21.2710  -75.2425 H         1 UNK         0.3047 
    118 H118      -81.2265   21.9314  -74.8579 H         1 UNK         0.0822 
    119 H119      -79.8214   22.6084  -72.8931 H         1 UNK         0.0807 
    120 H120      -81.4904   23.0850  -72.6498 H         1 UNK         0.0807 
    121 H121      -80.2889   24.2891  -73.1158 H         1 UNK         0.0807 
    122 H122      -82.2406   24.6033  -74.5790 H         1 UNK         0.2946 
    123 H123      -83.6803   25.1550  -77.5706 H         1 UNK         0.1144 
    124 H124      -86.0038   24.7580  -76.7414 H         1 UNK         0.0793 
    125 H125      -85.3980   23.6134  -75.5440 H         1 UNK         0.0793 
    126 H126      -85.2638   23.2531  -77.2601 H         1 UNK         0.0793 
    127 H127      -84.3638   25.7064  -74.7438 H         1 UNK         0.2896 
@<TRIPOS>BOND
     1    1    2 1    
     2    1   67 1    
     3    1   68 1    
     4    1   69 1    
     5    2    3 2    
     6    2    4 am   BACKBONE|DICT|INTERRES
     7    4    5 1    
     8    4   70 1    
     9    5    6 1    
    10    5   65 1    
    11    5   71 1    
    12    6    7 1    
    13    6   72 1    
    14    6   73 1    
    15    7    8 1    
    16    8    9 1    
    17    8   74 1    
    18    8   75 1    
    19    9   10 ar   
    20    9   14 ar   
    21   10   11 ar   
    22   10   76 1    
    23   11   12 ar   
    24   11   48 1    
    25   12   13 ar   
    26   12   77 1    
    27   13   14 ar   
    28   13   15 1    
    29   14   78 1    
    30   15   16 1    
    31   15   79 1    
    32   15   80 1    
    33   16   17 1    
    34   17   18 1    
    35   17   81 1    
    36   17   82 1    
    37   18   19 1    
    38   18   22 1    
    39   18   83 1    
    40   19   20 am   BACKBONE|DICT|INTERRES
    41   19   21 2    
    42   20   84 1    
    43   20   85 1    
    44   22   23 am   BACKBONE|DICT|INTERRES
    45   22   86 1    
    46   23   24 2    
    47   23   25 1    
    48   25   26 1    
    49   25   27 1    
    50   25   87 1    
    51   26   88 1    
    52   26   89 1    
    53   26   90 1    
    54   27   28 am   BACKBONE|DICT|INTERRES
    55   27   91 1    
    56   28   29 2    
    57   28   30 1    
    58   30   31 1    
    59   30   32 1    
    60   30   92 1    
    61   31   93 1    
    62   31   94 1    
    63   31   95 1    
    64   32   33 am   BACKBONE|DICT|INTERRES
    65   32   96 1    
    66   33   34 2    
    67   33   35 1    
    68   35   36 1    
    69   35   37 1    
    70   35   97 1    
    71   36   98 1    
    72   36   99 1    
    73   36  100 1    
    74   37   38 am   BACKBONE|DICT|INTERRES
    75   37  101 1    
    76   38   39 2    
    77   38   40 1    
    78   40   41 1    
    79   40   42 1    
    80   40  102 1    
    81   41  103 1    
    82   41  104 1    
    83   41  105 1    
    84   42   43 am   BACKBONE|DICT|INTERRES
    85   42  106 1    
    86   43   44 2    
    87   43   45 1    
    88   45   46 1    
    89   45   49 1    
    90   45  107 1    
    91   46   47 1    
    92   46  108 1    
    93   46  109 1    
    94   47   48 1    
    95   48  110 1    
    96   48  111 1    
    97   49   50 am   BACKBONE|DICT|INTERRES
    98   49  112 1    
    99   50   51 2    
   100   50   52 1    
   101   52   53 1    
   102   52   54 1    
   103   52  113 1    
   104   53  114 1    
   105   53  115 1    
   106   53  116 1    
   107   54   55 am   BACKBONE|DICT|INTERRES
   108   54  117 1    
   109   55   56 2    
   110   55   57 1    
   111   57   58 1    
   112   57   59 1    
   113   57  118 1    
   114   58  119 1    
   115   58  120 1    
   116   58  121 1    
   117   59   60 am   BACKBONE|DICT|INTERRES
   118   59  122 1    
   119   60   61 2    
   120   60   62 1    
   121   62   63 1    
   122   62   64 1    
   123   62  123 1    
   124   63  124 1    
   125   63  125 1    
   126   63  126 1    
   127   64   65 am   BACKBONE|DICT|INTERRES
   128   64  127 1    
   129   65   66 2    
@<TRIPOS>SUBSTRUCTURE
     1 UNK         1 GROUP             0       ****    0 ROOT    
