@<TRIPOS>MOLECULE
3R135
127   129    1
SMALL
USER_CHARGES


@<TRIPOS>ATOM
      1 CA        -85.9521   23.4115  -71.3847 C.3       0 UNK        -0.1998 
      2 C         -85.1286   24.5853  -71.8934 C.2       0 UNK         0.4909 
      3 O         -85.6109   25.3578  -72.7225 O.2       0 UNK        -0.5240 
      4 N         -83.8929   24.7305  -71.3973 N.am      1 UNK        -0.4739 
      5 CA        -82.9363   25.7553  -71.8253 C.3       1 UNK         0.0864 
      6 C6        -81.8014   25.9140  -70.7859 C.3       11 UNK        -0.0881 
      7 S7        -80.9053   27.4945  -70.9451 S.3       11 UNK        -0.2682 
      8 C8        -79.3875   26.8922  -71.7402 C.3       11 UNK         0.0289 
      9 C9        -78.3776   27.9943  -72.0212 C.ar      11 UNK        -0.0687 
     10 C10       -78.7193   29.0746  -72.8378 C.ar      11 UNK        -0.0823 
     11 C11       -77.7686   30.0445  -73.1688 C.ar      11 UNK        -0.0830 
     12 C12       -76.4649   29.9253  -72.6778 C.ar      11 UNK        -0.1021 
     13 C13       -76.1074   28.8466  -71.8596 C.ar      11 UNK        -0.0753 
     14 C14       -77.0736   27.8926  -71.5279 C.ar      11 UNK        -0.0933 
     15 C15       -74.6685   28.6434  -71.3982 C.3       11 UNK         0.0166 
     16 S16       -73.8526   30.1756  -70.8392 S.3       11 UNK        -0.2615 
     17 C17       -72.1221   29.6077  -70.6951 C.3       11 UNK        -0.0865 
     18 CA        -71.2640   29.9705  -71.9378 C.3       10 UNK         0.0862 
     19 C         -69.7614   29.6314  -71.7029 C.2       10 UNK         0.5551 
     20 N         -69.1310   28.7710  -72.4951 N.am      10 UNK        -0.7319 
     21 O         -69.1524   30.1684  -70.7809 O.2       10 UNK        -0.5018 
     22 N         -71.8273   29.3911  -73.1658 N.am      10 UNK        -0.4509 
     23 C         -71.6149   29.8393  -74.4077 C.2       10 UNK         0.4899 
     24 O         -70.9652   30.8527  -74.6694 O.2       10 UNK        -0.4839 
     25 CA        -72.2410   29.0027  -75.5426 C.3       9 UNK         0.0222 
     26 CB        -71.5468   29.2258  -76.9021 C.3       9 UNK        -0.1966 
     27 N         -72.3320   27.5650  -75.2461 N.am      9 UNK        -0.4218 
     28 C         -71.3242   26.7351  -74.9309 C.2       9 UNK         0.5020 
     29 O         -70.1549   27.0941  -74.7859 O.2       9 UNK        -0.5274 
     30 CA        -71.6820   25.2574  -74.7280 C.3       8 UNK         0.0270 
     31 CB        -72.2535   25.0261  -73.3176 C.3       8 UNK        -0.1976 
     32 N         -72.6431   24.8039  -75.7388 N.am      8 UNK        -0.4313 
     33 C         -72.3392   23.9922  -76.7603 C.2       8 UNK         0.5041 
     34 O         -71.2208   23.5079  -76.9419 O.2       8 UNK        -0.5577 
     35 CA        -73.4631   23.6410  -77.7504 C.3       7 UNK         0.0284 
     36 CB        -74.2789   22.4378  -77.2501 C.3       7 UNK        -0.1958 
     37 N         -74.3625   24.7547  -78.0655 N.am      7 UNK        -0.4454 
     38 C         -74.0196   25.7978  -78.8371 C.2       7 UNK         0.5089 
     39 O         -72.8812   25.9910  -79.2639 O.2       7 UNK        -0.5125 
     40 CA        -75.1384   26.7773  -79.2217 C.3       6 UNK         0.0408 
     41 CB        -76.0525   26.1638  -80.2953 C.3       6 UNK        -0.1791 
     42 N         -75.9352   27.1439  -78.0535 N.am      6 UNK        -0.4762 
     43 C         -75.7596   28.2627  -77.3355 C.2       6 UNK         0.5007 
     44 O         -74.9783   29.1588  -77.6534 O.2       6 UNK        -0.5032 
     45 CA        -76.5767   28.4008  -76.0310 C.3       5 UNK         0.0783 
     46 C46       -77.7906   29.3516  -76.2200 C.3       11 UNK        -0.0857 
     47 S47       -77.3741   31.0621  -75.7367 S.3       11 UNK        -0.2512 
     48 C48       -78.1466   31.1983  -74.0890 C.3       11 UNK         0.0225 
     49 N         -76.9648   27.1025  -75.4652 N.am      5 UNK        -0.4615 
     50 C         -76.0886   26.2054  -74.9882 C.2       4 UNK         0.5053 
     51 O         -74.8783   26.4193  -74.9213 O.2       4 UNK        -0.5105 
     52 CA        -76.6038   24.8049  -74.6062 C.3       4 UNK         0.0263 
     53 CB        -76.6884   24.6266  -73.0861 C.3       4 UNK        -0.1981 
     54 N         -77.8771   24.4402  -75.2351 N.am      4 UNK        -0.4224 
     55 C         -78.0432   24.3113  -76.5584 C.2       3 UNK         0.4895 
     56 O         -77.1262   24.4502  -77.3708 O.2       3 UNK        -0.5091 
     57 CA        -79.4602   24.0194  -77.0788 C.3       3 UNK         0.0250 
     58 CB        -79.6755   22.5020  -77.1915 C.3       3 UNK        -0.1996 
     59 N         -80.5867   24.6135  -76.3416 N.am      3 UNK        -0.4254 
     60 C         -80.7216   25.8827  -75.9248 C.2       2 UNK         0.5004 
     61 O         -79.7994   26.6959  -75.8716 O.2       2 UNK        -0.5226 
     62 CA        -82.1442   26.3549  -75.5657 C.3       2 UNK         0.0269 
     63 CB        -83.2611   25.5555  -76.2771 C.3       2 UNK        -0.1926 
     64 N         -82.4066   26.4351  -74.1245 N.am      2 UNK        -0.4687 
     65 C         -82.4089   25.4271  -73.2410 C.2       1 UNK         0.5165 
     66 O         -82.0430   24.2781  -73.5017 O.2       1 UNK        -0.5079 
     67 H67       -85.4085   22.8205  -70.6478 H         1 UNK         0.0900 
     68 H68       -86.2218   22.7564  -72.2126 H         1 UNK         0.0900 
     69 H69       -86.8704   23.7705  -70.9206 H         1 UNK         0.0900 
     70 H70       -83.5396   24.0459  -70.7439 H         1 UNK         0.2959 
     71 H71       -83.4848   26.6994  -71.8714 H         1 UNK         0.1079 
     72 H72       -82.2233   25.9040  -69.7794 H         1 UNK         0.0837 
     73 H73       -81.1115   25.0682  -70.8209 H         1 UNK         0.0837 
     74 H74       -79.6407   26.4058  -72.6831 H         1 UNK         0.0685 
     75 H75       -78.9488   26.1278  -71.0970 H         1 UNK         0.0685 
     76 H76       -79.7229   29.1432  -73.2351 H         1 UNK         0.1434 
     77 H77       -75.7223   30.6591  -72.9601 H         1 UNK         0.1329 
     78 H78       -76.7981   27.0451  -70.9153 H         1 UNK         0.1335 
     79 H79       -74.1136   28.2082  -72.2289 H         1 UNK         0.0680 
     80 H80       -74.6267   27.9183  -70.5838 H         1 UNK         0.0680 
     81 H81       -71.7052   30.0743  -69.8003 H         1 UNK         0.1032 
     82 H82       -72.0976   28.5326  -70.5073 H         1 UNK         0.1032 
     83 H83       -71.3024   31.0562  -72.0472 H         1 UNK         0.0461 
     84 H84       -69.6053   28.3224  -73.2712 H         1 UNK         0.3453 
     85 H85       -68.1583   28.5716  -72.3248 H         1 UNK         0.3453 
     86 H86       -72.3565   28.5414  -73.0535 H         1 UNK         0.2984 
     87 H87       -73.2677   29.3573  -75.6318 H         1 UNK         0.0554 
     88 H88       -71.5923   30.2742  -77.1992 H         1 UNK         0.0847 
     89 H89       -72.0301   28.6481  -77.6905 H         1 UNK         0.0847 
     90 H90       -70.4952   28.9391  -76.8707 H         1 UNK         0.0847 
     91 H91       -73.2744   27.1780  -75.2483 H         1 UNK         0.3141 
     92 H92       -70.7544   24.6859  -74.8025 H         1 UNK         0.0743 
     93 H93       -71.5327   25.3224  -72.5542 H         1 UNK         0.0784 
     94 H94       -73.1655   25.5957  -73.1396 H         1 UNK         0.0784 
     95 H95       -72.4822   23.9729  -73.1538 H         1 UNK         0.0784 
     96 H96       -73.5796   25.1888  -75.6724 H         1 UNK         0.3213 
     97 H97       -72.9818   23.3398  -78.6838 H         1 UNK         0.0855 
     98 H98       -74.7792   22.6453  -76.3060 H         1 UNK         0.0814 
     99 H99       -73.6343   21.5724  -77.0902 H         1 UNK         0.0814 
    100 H100      -75.0394   22.1446  -77.9742 H         1 UNK         0.0814 
    101 H101      -75.3369   24.6506  -77.7900 H         1 UNK         0.3105 
    102 H102      -74.6723   27.6651  -79.6546 H         1 UNK         0.0547 
    103 H103      -76.5608   25.2672  -79.9388 H         1 UNK         0.0837 
    104 H104      -76.8149   26.8736  -80.6162 H         1 UNK         0.0837 
    105 H105      -75.4794   25.8831  -81.1800 H         1 UNK         0.0837 
    106 H106      -76.5800   26.4417  -77.7090 H         1 UNK         0.3020 
    107 H107      -75.8970   28.8435  -75.2993 H         1 UNK         0.1245 
    108 H108      -78.6424   29.0262  -75.6239 H         1 UNK         0.0781 
    109 H109      -78.1564   29.3507  -77.2489 H         1 UNK         0.0781 
    110 H110      -77.8422   32.1404  -73.6309 H         1 UNK         0.0836 
    111 H111      -79.2293   31.2557  -74.2112 H         1 UNK         0.0836 
    112 H112      -77.9533   26.8650  -75.5174 H         1 UNK         0.3022 
    113 H113      -75.8539   24.1002  -74.9645 H         1 UNK         0.0747 
    114 H114      -75.7622   24.9368  -72.5997 H         1 UNK         0.0793 
    115 H115      -76.8600   23.5836  -72.8196 H         1 UNK         0.0793 
    116 H116      -77.4948   25.2152  -72.6614 H         1 UNK         0.0793 
    117 H117      -78.6835   24.3349  -74.6364 H         1 UNK         0.3047 
    118 H118      -79.5046   24.4373  -78.0864 H         1 UNK         0.0822 
    119 H119      -78.8665   22.0306  -77.7521 H         1 UNK         0.0807 
    120 H120      -80.6039   22.2688  -77.7131 H         1 UNK         0.0807 
    121 H121      -79.7125   22.0270  -76.2102 H         1 UNK         0.0807 
    122 H122      -81.4101   24.0329  -76.2720 H         1 UNK         0.2946 
    123 H123      -82.2062   27.3792  -75.9381 H         1 UNK         0.1144 
    124 H124      -83.0931   25.5158  -77.3545 H         1 UNK         0.0793 
    125 H125      -84.2324   26.0267  -76.1250 H         1 UNK         0.0793 
    126 H126      -83.3388   24.5296  -75.9160 H         1 UNK         0.0793 
    127 H127      -82.6743   27.3515  -73.7923 H         1 UNK         0.2896 
@<TRIPOS>BOND
     1    1    2 1    
     2    1   67 1    
     3    1   68 1    
     4    1   69 1    
     5    2    3 2    
     6    2    4 am   BACKBONE|DICT|INTERRES
     7    4    5 1    
     8    4   70 1    
     9    5    6 1    
    10    5   65 1    
    11    5   71 1    
    12    6    7 1    
    13    6   72 1    
    14    6   73 1    
    15    7    8 1    
    16    8    9 1    
    17    8   74 1    
    18    8   75 1    
    19    9   10 ar   
    20    9   14 ar   
    21   10   11 ar   
    22   10   76 1    
    23   11   12 ar   
    24   11   48 1    
    25   12   13 ar   
    26   12   77 1    
    27   13   14 ar   
    28   13   15 1    
    29   14   78 1    
    30   15   16 1    
    31   15   79 1    
    32   15   80 1    
    33   16   17 1    
    34   17   18 1    
    35   17   81 1    
    36   17   82 1    
    37   18   19 1    
    38   18   22 1    
    39   18   83 1    
    40   19   20 am   BACKBONE|DICT|INTERRES
    41   19   21 2    
    42   20   84 1    
    43   20   85 1    
    44   22   23 am   BACKBONE|DICT|INTERRES
    45   22   86 1    
    46   23   24 2    
    47   23   25 1    
    48   25   26 1    
    49   25   27 1    
    50   25   87 1    
    51   26   88 1    
    52   26   89 1    
    53   26   90 1    
    54   27   28 am   BACKBONE|DICT|INTERRES
    55   27   91 1    
    56   28   29 2    
    57   28   30 1    
    58   30   31 1    
    59   30   32 1    
    60   30   92 1    
    61   31   93 1    
    62   31   94 1    
    63   31   95 1    
    64   32   33 am   BACKBONE|DICT|INTERRES
    65   32   96 1    
    66   33   34 2    
    67   33   35 1    
    68   35   36 1    
    69   35   37 1    
    70   35   97 1    
    71   36   98 1    
    72   36   99 1    
    73   36  100 1    
    74   37   38 am   BACKBONE|DICT|INTERRES
    75   37  101 1    
    76   38   39 2    
    77   38   40 1    
    78   40   41 1    
    79   40   42 1    
    80   40  102 1    
    81   41  103 1    
    82   41  104 1    
    83   41  105 1    
    84   42   43 am   BACKBONE|DICT|INTERRES
    85   42  106 1    
    86   43   44 2    
    87   43   45 1    
    88   45   46 1    
    89   45   49 1    
    90   45  107 1    
    91   46   47 1    
    92   46  108 1    
    93   46  109 1    
    94   47   48 1    
    95   48  110 1    
    96   48  111 1    
    97   49   50 am   BACKBONE|DICT|INTERRES
    98   49  112 1    
    99   50   51 2    
   100   50   52 1    
   101   52   53 1    
   102   52   54 1    
   103   52  113 1    
   104   53  114 1    
   105   53  115 1    
   106   53  116 1    
   107   54   55 am   BACKBONE|DICT|INTERRES
   108   54  117 1    
   109   55   56 2    
   110   55   57 1    
   111   57   58 1    
   112   57   59 1    
   113   57  118 1    
   114   58  119 1    
   115   58  120 1    
   116   58  121 1    
   117   59   60 am   BACKBONE|DICT|INTERRES
   118   59  122 1    
   119   60   61 2    
   120   60   62 1    
   121   62   63 1    
   122   62   64 1    
   123   62  123 1    
   124   63  124 1    
   125   63  125 1    
   126   63  126 1    
   127   64   65 am   BACKBONE|DICT|INTERRES
   128   64  127 1    
   129   65   66 2    
@<TRIPOS>SUBSTRUCTURE
     1 UNK         1 GROUP             0       ****    0 ROOT    
