@<TRIPOS>MOLECULE
3R135
127   129    1
SMALL
USER_CHARGES


@<TRIPOS>ATOM
      1 CA        -84.2713   27.0714  -73.3325 C.3       0 UNK        -0.1998 
      2 C         -83.2944   28.1362  -73.8258 C.2       0 UNK         0.4909 
      3 O         -83.7338   29.1208  -74.4153 O.2       0 UNK        -0.5240 
      4 N         -81.9724   28.0029  -73.6300 N.am      1 UNK        -0.4739 
      5 CA        -81.2293   26.9165  -72.9656 C.3       1 UNK         0.0864 
      6 C6        -81.7025   26.6476  -71.5074 C.3       11 UNK        -0.0881 
      7 S7        -80.3527   26.2280  -70.3531 S.3       11 UNK        -0.2682 
      8 C8        -79.8589   27.8636  -69.7181 C.3       11 UNK         0.0289 
      9 C9        -78.8432   28.5312  -70.6335 C.ar      11 UNK        -0.0687 
     10 C10       -79.2511   29.4551  -71.6004 C.ar      11 UNK        -0.0823 
     11 C11       -78.3194   30.0410  -72.4649 C.ar      11 UNK        -0.0830 
     12 C12       -76.9636   29.7235  -72.3241 C.ar      11 UNK        -0.1021 
     13 C13       -76.5447   28.8010  -71.3608 C.ar      11 UNK        -0.0753 
     14 C14       -77.4882   28.2114  -70.5165 C.ar      11 UNK        -0.0933 
     15 C15       -75.0821   28.4001  -71.2688 C.3       11 UNK         0.0166 
     16 S16       -74.0660   29.6735  -70.4668 S.3       11 UNK        -0.2615 
     17 C17       -72.4262   28.8678  -70.5113 C.3       11 UNK        -0.0865 
     18 CA        -71.5682   29.2956  -71.7335 C.3       10 UNK         0.0862 
     19 C         -70.0883   28.8306  -71.5794 C.2       10 UNK         0.5551 
     20 N         -69.5147   28.0725  -72.5071 N.am      10 UNK        -0.7319 
     21 O         -69.4403   29.1752  -70.5940 O.2       10 UNK        -0.5018 
     22 N         -72.1951   28.8950  -73.0036 N.am      10 UNK        -0.4509 
     23 C         -71.9994   29.5000  -74.1806 C.2       10 UNK         0.4899 
     24 O         -71.3171   30.5162  -74.3226 O.2       10 UNK        -0.4839 
     25 CA        -72.6824   28.8496  -75.4008 C.3       9 UNK         0.0222 
     26 CB        -72.0901   29.3261  -76.7432 C.3       9 UNK        -0.1966 
     27 N         -72.7144   27.3812  -75.3558 N.am      9 UNK        -0.4218 
     28 C         -71.6746   26.5408  -75.2462 C.2       9 UNK         0.5020 
     29 O         -70.5113   26.9016  -75.0623 O.2       9 UNK        -0.5274 
     30 CA        -71.9842   25.0390  -75.3743 C.3       8 UNK         0.0270 
     31 CB        -72.4538   24.4397  -74.0391 C.3       8 UNK        -0.1976 
     32 N         -72.9466   24.7459  -76.4464 N.am      8 UNK        -0.4313 
     33 C         -72.6216   24.8055  -77.7478 C.2       8 UNK         0.5041 
     34 O         -71.5085   25.1358  -78.1598 O.2       8 UNK        -0.5577 
     35 CA        -73.6962   24.4176  -78.7688 C.3       7 UNK         0.0284 
     36 CB        -73.9687   22.9026  -78.7425 C.3       7 UNK        -0.1958 
     37 N         -74.9402   25.1604  -78.5555 N.am      7 UNK        -0.4454 
     38 C         -75.3428   26.1736  -79.3355 C.2       7 UNK         0.5089 
     39 O         -74.6733   26.6362  -80.2604 O.2       7 UNK        -0.5125 
     40 CA        -76.7434   26.7527  -79.0820 C.3       6 UNK         0.0408 
     41 CB        -77.8189   25.8600  -79.7215 C.3       6 UNK        -0.1791 
     42 N         -77.0590   26.9616  -77.6699 N.am      6 UNK        -0.4762 
     43 C         -76.5512   27.9496  -76.9194 C.2       6 UNK         0.5007 
     44 O         -75.6796   28.7255  -77.3104 O.2       6 UNK        -0.5032 
     45 CA        -77.1192   28.0995  -75.4954 C.3       5 UNK         0.0783 
     46 C46       -78.4357   28.9224  -75.4703 C.3       11 UNK        -0.0857 
     47 S47       -78.1014   30.6980  -75.2054 S.3       11 UNK        -0.2512 
     48 C48       -78.7944   31.0150  -73.5416 C.3       11 UNK         0.0225 
     49 N         -77.2761   26.7946  -74.8541 N.am      5 UNK        -0.4615 
     50 C         -76.2799   26.1669  -74.2194 C.2       4 UNK         0.5053 
     51 O         -75.1430   26.6218  -74.1254 O.2       4 UNK        -0.5105 
     52 CA        -76.5823   24.7797  -73.6333 C.3       4 UNK         0.0263 
     53 CB        -77.2516   24.9113  -72.2578 C.3       4 UNK        -0.1981 
     54 N         -77.4091   23.9675  -74.5270 N.am      4 UNK        -0.4224 
     55 C         -77.0124   23.5789  -75.7485 C.2       3 UNK         0.4895 
     56 O         -75.8952   23.8222  -76.2079 O.2       3 UNK        -0.5091 
     57 CA        -78.0376   22.8450  -76.6316 C.3       3 UNK         0.0250 
     58 CB        -77.8827   21.3246  -76.4762 C.3       3 UNK        -0.1996 
     59 N         -79.4350   23.2231  -76.3865 N.am      3 UNK        -0.4254 
     60 C         -79.9278   24.4681  -76.4597 C.2       2 UNK         0.5004 
     61 O         -79.2438   25.4570  -76.7310 O.2       2 UNK        -0.5226 
     62 CA        -81.4169   24.6783  -76.1321 C.3       2 UNK         0.0269 
     63 CB        -82.1909   23.3894  -75.7694 C.3       2 UNK        -0.1926 
     64 N         -81.5647   25.6965  -75.0853 N.am      2 UNK        -0.4687 
     65 C         -81.0807   25.6439  -73.8331 C.2       1 UNK         0.5165 
     66 O         -80.4941   24.6616  -73.3785 O.2       1 UNK        -0.5079 
     67 H67       -83.8943   26.0605  -73.4735 H         1 UNK         0.0900 
     68 H68       -84.4920   27.2201  -72.2761 H         1 UNK         0.0900 
     69 H69       -85.2113   27.1425  -73.8794 H         1 UNK         0.0900 
     70 H70       -81.3865   28.7406  -73.9945 H         1 UNK         0.2959 
     71 H71       -80.2085   27.2926  -72.9080 H         1 UNK         0.1079 
     72 H72       -82.2166   27.5214  -71.1049 H         1 UNK         0.0837 
     73 H73       -82.4363   25.8405  -71.4757 H         1 UNK         0.0837 
     74 H74       -80.7341   28.4994  -69.5769 H         1 UNK         0.0685 
     75 H75       -79.4208   27.7330  -68.7275 H         1 UNK         0.0685 
     76 H76       -80.3004   29.7018  -71.6893 H         1 UNK         0.1434 
     77 H77       -76.2327   30.1781  -72.9787 H         1 UNK         0.1329 
     78 H78       -77.1719   27.4886  -69.7768 H         1 UNK         0.1335 
     79 H79       -74.7017   28.2341  -72.2734 H         1 UNK         0.0680 
     80 H80       -74.9756   27.4548  -70.7345 H         1 UNK         0.0680 
     81 H81       -72.5392   27.7827  -70.4791 H         1 UNK         0.1032 
     82 H82       -71.9219   29.1384  -69.5815 H         1 UNK         0.1032 
     83 H83       -71.5243   30.3865  -71.7215 H         1 UNK         0.0461 
     84 H84       -70.0122   27.7916  -73.3455 H         1 UNK         0.3453 
     85 H85       -68.5554   27.7915  -72.3826 H         1 UNK         0.3453 
     86 H86       -72.7525   28.0543  -72.9861 H         1 UNK         0.2984 
     87 H87       -73.7232   29.1739  -75.3662 H         1 UNK         0.0554 
     88 H88       -72.1690   30.4090  -76.8463 H         1 UNK         0.0847 
     89 H89       -72.6212   28.8838  -77.5864 H         1 UNK         0.0847 
     90 H90       -71.0356   29.0636  -76.8345 H         1 UNK         0.0847 
     91 H91       -73.6440   26.9721  -75.3468 H         1 UNK         0.3141 
     92 H92       -71.0455   24.5419  -75.6300 H         1 UNK         0.0743 
     93 H93       -73.3661   24.9045  -73.6744 H         1 UNK         0.0784 
     94 H94       -72.6348   23.3683  -74.1266 H         1 UNK         0.0784 
     95 H95       -71.6947   24.5773  -73.2678 H         1 UNK         0.0784 
     96 H96       -73.8832   24.4555  -76.1845 H         1 UNK         0.3213 
     97 H97       -73.2930   24.6432  -79.7587 H         1 UNK         0.0855 
     98 H98       -74.3128   22.5558  -77.7688 H         1 UNK         0.0814 
     99 H99       -73.0619   22.3444  -78.9786 H         1 UNK         0.0814 
    100 H100      -74.7206   22.6236  -79.4807 H         1 UNK         0.0814 
    101 H101      -75.5218   24.8549  -77.7806 H         1 UNK         0.3105 
    102 H102      -76.7894   27.7248  -79.5781 H         1 UNK         0.0547 
    103 H103      -78.8107   26.3015  -79.6225 H         1 UNK         0.0837 
    104 H104      -77.8481   24.8705  -79.2662 H         1 UNK         0.0837 
    105 H105      -77.6301   25.7231  -80.7871 H         1 UNK         0.0837 
    106 H106      -77.7982   26.3791  -77.2782 H         1 UNK         0.3020 
    107 H107      -76.3661   28.6501  -74.9271 H         1 UNK         0.1245 
    108 H108      -79.0882   28.5747  -74.6703 H         1 UNK         0.0781 
    109 H109      -79.0163   28.7971  -76.3867 H         1 UNK         0.0781 
    110 H110      -79.8826   31.0004  -73.6192 H         1 UNK         0.0836 
    111 H111      -78.5249   32.0276  -73.2387 H         1 UNK         0.0836 
    112 H112      -78.1509   26.3103  -75.0039 H         1 UNK         0.3022 
    113 H113      -75.6345   24.2561  -73.4979 H         1 UNK         0.0747 
    114 H114      -77.4853   23.9367  -71.8295 H         1 UNK         0.0793 
    115 H115      -76.5947   25.4257  -71.5556 H         1 UNK         0.0793 
    116 H116      -78.1763   25.4854  -72.3115 H         1 UNK         0.0793 
    117 H117      -78.3523   23.7600  -74.2248 H         1 UNK         0.3047 
    118 H118      -77.8087   23.1025  -77.6669 H         1 UNK         0.0822 
    119 H119      -78.5231   20.7859  -77.1749 H         1 UNK         0.0807 
    120 H120      -78.1314   20.9937  -75.4670 H         1 UNK         0.0807 
    121 H121      -76.8559   21.0145  -76.6774 H         1 UNK         0.0807 
    122 H122      -80.0659   22.4773  -76.1309 H         1 UNK         0.2946 
    123 H123      -81.8653   25.0905  -77.0376 H         1 UNK         0.1144 
    124 H124      -81.7870   22.8925  -74.8866 H         1 UNK         0.0793 
    125 H125      -82.1741   22.6736  -76.5923 H         1 UNK         0.0793 
    126 H126      -83.2389   23.6110  -75.5670 H         1 UNK         0.0793 
    127 H127      -81.9793   26.5683  -75.3841 H         1 UNK         0.2896 
@<TRIPOS>BOND
     1    1    2 1    
     2    1   67 1    
     3    1   68 1    
     4    1   69 1    
     5    2    3 2    
     6    2    4 am   BACKBONE|DICT|INTERRES
     7    4    5 1    
     8    4   70 1    
     9    5    6 1    
    10    5   65 1    
    11    5   71 1    
    12    6    7 1    
    13    6   72 1    
    14    6   73 1    
    15    7    8 1    
    16    8    9 1    
    17    8   74 1    
    18    8   75 1    
    19    9   10 ar   
    20    9   14 ar   
    21   10   11 ar   
    22   10   76 1    
    23   11   12 ar   
    24   11   48 1    
    25   12   13 ar   
    26   12   77 1    
    27   13   14 ar   
    28   13   15 1    
    29   14   78 1    
    30   15   16 1    
    31   15   79 1    
    32   15   80 1    
    33   16   17 1    
    34   17   18 1    
    35   17   81 1    
    36   17   82 1    
    37   18   19 1    
    38   18   22 1    
    39   18   83 1    
    40   19   20 am   BACKBONE|DICT|INTERRES
    41   19   21 2    
    42   20   84 1    
    43   20   85 1    
    44   22   23 am   BACKBONE|DICT|INTERRES
    45   22   86 1    
    46   23   24 2    
    47   23   25 1    
    48   25   26 1    
    49   25   27 1    
    50   25   87 1    
    51   26   88 1    
    52   26   89 1    
    53   26   90 1    
    54   27   28 am   BACKBONE|DICT|INTERRES
    55   27   91 1    
    56   28   29 2    
    57   28   30 1    
    58   30   31 1    
    59   30   32 1    
    60   30   92 1    
    61   31   93 1    
    62   31   94 1    
    63   31   95 1    
    64   32   33 am   BACKBONE|DICT|INTERRES
    65   32   96 1    
    66   33   34 2    
    67   33   35 1    
    68   35   36 1    
    69   35   37 1    
    70   35   97 1    
    71   36   98 1    
    72   36   99 1    
    73   36  100 1    
    74   37   38 am   BACKBONE|DICT|INTERRES
    75   37  101 1    
    76   38   39 2    
    77   38   40 1    
    78   40   41 1    
    79   40   42 1    
    80   40  102 1    
    81   41  103 1    
    82   41  104 1    
    83   41  105 1    
    84   42   43 am   BACKBONE|DICT|INTERRES
    85   42  106 1    
    86   43   44 2    
    87   43   45 1    
    88   45   46 1    
    89   45   49 1    
    90   45  107 1    
    91   46   47 1    
    92   46  108 1    
    93   46  109 1    
    94   47   48 1    
    95   48  110 1    
    96   48  111 1    
    97   49   50 am   BACKBONE|DICT|INTERRES
    98   49  112 1    
    99   50   51 2    
   100   50   52 1    
   101   52   53 1    
   102   52   54 1    
   103   52  113 1    
   104   53  114 1    
   105   53  115 1    
   106   53  116 1    
   107   54   55 am   BACKBONE|DICT|INTERRES
   108   54  117 1    
   109   55   56 2    
   110   55   57 1    
   111   57   58 1    
   112   57   59 1    
   113   57  118 1    
   114   58  119 1    
   115   58  120 1    
   116   58  121 1    
   117   59   60 am   BACKBONE|DICT|INTERRES
   118   59  122 1    
   119   60   61 2    
   120   60   62 1    
   121   62   63 1    
   122   62   64 1    
   123   62  123 1    
   124   63  124 1    
   125   63  125 1    
   126   63  126 1    
   127   64   65 am   BACKBONE|DICT|INTERRES
   128   64  127 1    
   129   65   66 2    
@<TRIPOS>SUBSTRUCTURE
     1 UNK         1 GROUP             0       ****    0 ROOT    
