@<TRIPOS>MOLECULE
3R135
127   129    1
SMALL
USER_CHARGES


@<TRIPOS>ATOM
      1 CA        -82.4670   31.4766  -74.7663 C.3       0 UNK        -0.1998 
      2 C         -81.7972   30.1513  -74.4355 C.2       0 UNK         0.4909 
      3 O         -81.0195   29.6400  -75.2415 O.2       0 UNK        -0.5240 
      4 N         -82.0842   29.5974  -73.2513 N.am      1 UNK        -0.4739 
      5 CA        -81.5732   28.3044  -72.7857 C.3       1 UNK         0.0864 
      6 C6        -81.8084   28.1203  -71.2625 C.3       11 UNK        -0.0881 
      7 S7        -81.0515   29.3621  -70.1401 S.3       11 UNK        -0.2682 
      8 C8        -79.5326   29.9786  -70.9568 C.3       11 UNK         0.0289 
      9 C9        -78.3012   29.0997  -70.7391 C.ar      11 UNK        -0.0687 
     10 C10       -78.3521   27.7170  -70.9381 C.ar      11 UNK        -0.0823 
     11 C11       -77.2110   26.9231  -70.7962 C.ar      11 UNK        -0.0830 
     12 C12       -76.0033   27.5233  -70.4334 C.ar      11 UNK        -0.1021 
     13 C13       -75.9321   28.9031  -70.2238 C.ar      11 UNK        -0.0753 
     14 C14       -77.0822   29.6851  -70.3771 C.ar      11 UNK        -0.0933 
     15 C15       -74.6075   29.5396  -69.8305 C.3       11 UNK         0.0166 
     16 S16       -73.5055   29.7380  -71.2644 S.3       11 UNK        -0.2615 
     17 C17       -74.2714   31.1735  -72.0961 C.3       11 UNK        -0.0865 
     18 CA        -73.5500   31.5938  -73.4026 C.3       10 UNK         0.0862 
     19 C         -72.1493   32.2229  -73.1309 C.2       10 UNK         0.5551 
     20 N         -71.0499   31.6519  -73.6114 N.am      10 UNK        -0.7319 
     21 O         -72.0636   33.2615  -72.4799 O.2       10 UNK        -0.5018 
     22 N         -73.5631   30.5055  -74.3894 N.am      10 UNK        -0.4509 
     23 C         -73.3771   30.6589  -75.7060 C.2       10 UNK         0.4899 
     24 O         -73.2990   31.7572  -76.2589 O.2       10 UNK        -0.4839 
     25 CA        -73.2551   29.3679  -76.5419 C.3       9 UNK         0.0222 
     26 CB        -72.4485   29.5835  -77.8396 C.3       9 UNK        -0.1966 
     27 N         -72.7253   28.2195  -75.7927 N.am      9 UNK        -0.4218 
     28 C         -71.5411   28.1238  -75.1652 C.2       9 UNK         0.5020 
     29 O         -70.7243   29.0426  -75.0881 O.2       9 UNK        -0.5274 
     30 CA        -71.2223   26.7769  -74.4985 C.3       8 UNK         0.0270 
     31 CB        -71.8769   26.6982  -73.1084 C.3       8 UNK        -0.1976 
     32 N         -71.6859   25.6590  -75.3233 N.am      8 UNK        -0.4313 
     33 C         -70.9326   25.0000  -76.2155 C.2       8 UNK         0.5041 
     34 O         -69.7265   25.1950  -76.3721 O.2       8 UNK        -0.5577 
     35 CA        -71.6401   23.9461  -77.0914 C.3       7 UNK         0.0284 
     36 CB        -71.5874   22.5640  -76.4206 C.3       7 UNK        -0.1958 
     37 N         -73.0343   24.2874  -77.3844 N.am      7 UNK        -0.4454 
     38 C         -73.4223   25.3195  -78.1478 C.2       7 UNK         0.5089 
     39 O         -72.6443   26.0065  -78.8085 O.2       7 UNK        -0.5125 
     40 CA        -74.9238   25.6727  -78.1551 C.3       6 UNK         0.0408 
     41 CB        -75.5764   25.2079  -79.4658 C.3       6 UNK        -0.1791 
     42 N         -75.6895   25.1380  -77.0210 N.am      6 UNK        -0.4762 
     43 C         -75.4587   25.3949  -75.7228 C.2       6 UNK         0.5007 
     44 O         -74.5469   26.1281  -75.3386 O.2       6 UNK        -0.5032 
     45 CA        -76.3488   24.7022  -74.6715 C.3       5 UNK         0.0783 
     46 C46       -77.1307   25.7494  -73.8444 C.3       11 UNK        -0.0857 
     47 S47       -78.1778   24.9798  -72.5604 S.3       11 UNK        -0.2512 
     48 C48       -77.2775   25.4183  -71.0355 C.3       11 UNK         0.0225 
     49 N         -77.2281   23.6871  -75.2608 N.am      5 UNK        -0.4615 
     50 C         -76.8366   22.4585  -75.6262 C.2       4 UNK         0.5053 
     51 O         -75.6739   22.0646  -75.5305 O.2       4 UNK        -0.5105 
     52 CA        -77.9049   21.5100  -76.2039 C.3       4 UNK         0.0263 
     53 CB        -78.3555   20.5030  -75.1335 C.3       4 UNK        -0.1981 
     54 N         -79.0838   22.1998  -76.7350 N.am      4 UNK        -0.4224 
     55 C         -79.0877   22.9965  -77.8132 C.2       3 UNK         0.4895 
     56 O         -78.0993   23.1935  -78.5200 O.2       3 UNK        -0.5091 
     57 CA        -80.4032   23.7331  -78.1304 C.3       3 UNK         0.0250 
     58 CB        -81.2380   22.9286  -79.1396 C.3       3 UNK        -0.1996 
     59 N         -81.2258   24.0413  -76.9509 N.am      3 UNK        -0.4254 
     60 C         -80.8295   24.8034  -75.9216 C.2       2 UNK         0.5004 
     61 O         -79.7014   25.2918  -75.8318 O.2       2 UNK        -0.5226 
     62 CA        -81.8392   25.0139  -74.7866 C.3       2 UNK         0.0269 
     63 CB        -81.9012   23.7726  -73.8792 C.3       2 UNK        -0.1926 
     64 N         -81.4243   26.1658  -73.9864 N.am      2 UNK        -0.4687 
     65 C         -82.2294   27.1512  -73.5751 C.2       1 UNK         0.5165 
     66 O         -83.4476   27.1665  -73.7714 O.2       1 UNK        -0.5079 
     67 H67       -81.7138   32.2435  -74.9442 H         1 UNK         0.0900 
     68 H68       -83.0716   31.3764  -75.6673 H         1 UNK         0.0900 
     69 H69       -83.1149   31.8186  -73.9593 H         1 UNK         0.0900 
     70 H70       -82.7423   30.0517  -72.6344 H         1 UNK         0.2959 
     71 H71       -80.5023   28.2682  -72.9916 H         1 UNK         0.1079 
     72 H72       -82.8808   28.1254  -71.0561 H         1 UNK         0.0837 
     73 H73       -81.4688   27.1341  -70.9411 H         1 UNK         0.0837 
     74 H74       -79.3417   30.9703  -70.5440 H         1 UNK         0.0685 
     75 H75       -79.6859   30.1404  -72.0221 H         1 UNK         0.0685 
     76 H76       -79.2772   27.2447  -71.2206 H         1 UNK         0.1434 
     77 H77       -75.1119   26.9211  -70.3207 H         1 UNK         0.1329 
     78 H78       -77.0231   30.7541  -70.2244 H         1 UNK         0.1335 
     79 H79       -74.7657   30.5064  -69.3499 H         1 UNK         0.0680 
     80 H80       -74.1101   28.9104  -69.0909 H         1 UNK         0.0680 
     81 H81       -74.3141   32.0103  -71.3962 H         1 UNK         0.1032 
     82 H82       -75.3092   30.9266  -72.3246 H         1 UNK         0.1032 
     83 H83       -74.1432   32.4046  -73.8301 H         1 UNK         0.0461 
     84 H84       -71.0966   30.7909  -74.1456 H         1 UNK         0.3453 
     85 H85       -70.1556   32.0777  -73.4289 H         1 UNK         0.3453 
     86 H86       -73.5997   29.5713  -74.0093 H         1 UNK         0.2984 
     87 H87       -74.2724   29.0958  -76.8266 H         1 UNK         0.0554 
     88 H88       -72.9141   30.3402  -78.4722 H         1 UNK         0.0847 
     89 H89       -72.3883   28.6681  -78.4273 H         1 UNK         0.0847 
     90 H90       -71.4306   29.9147  -77.6313 H         1 UNK         0.0847 
     91 H91       -73.3615   27.4278  -75.7143 H         1 UNK         0.3141 
     92 H92       -70.1400   26.7157  -74.3652 H         1 UNK         0.0743 
     93 H93       -71.5287   27.5106  -72.4689 H         1 UNK         0.0784 
     94 H94       -72.9641   26.7699  -73.1607 H         1 UNK         0.0784 
     95 H95       -71.6276   25.7632  -72.6067 H         1 UNK         0.0784 
     96 H96       -72.6815   25.4684  -75.2959 H         1 UNK         0.3213 
     97 H97       -71.0997   23.8886  -78.0390 H         1 UNK         0.0855 
     98 H98       -72.1337   22.5503  -75.4765 H         1 UNK         0.0814 
     99 H99       -70.5577   22.2741  -76.2060 H         1 UNK         0.0814 
    100 H100      -72.0116   21.7935  -77.0648 H         1 UNK         0.0814 
    101 H101      -73.7486   23.7565  -76.9057 H         1 UNK         0.3105 
    102 H102      -74.9942   26.7613  -78.1077 H         1 UNK         0.0547 
    103 H103      -76.6142   25.5352  -79.5314 H         1 UNK         0.0837 
    104 H104      -75.5625   24.1212  -79.5592 H         1 UNK         0.0837 
    105 H105      -75.0538   25.6171  -80.3316 H         1 UNK         0.0837 
    106 H106      -76.4576   24.5200  -77.2511 H         1 UNK         0.3020 
    107 H107      -75.6650   24.1941  -73.9875 H         1 UNK         0.1245 
    108 H108      -77.7702   26.3539  -74.4889 H         1 UNK         0.0781 
    109 H109      -76.4397   26.4527  -73.3760 H         1 UNK         0.0781 
    110 H110      -76.2763   24.9872  -71.0849 H         1 UNK         0.0836 
    111 H111      -77.7752   24.9499  -70.1856 H         1 UNK         0.0836 
    112 H112      -78.1918   23.9736  -75.3970 H         1 UNK         0.3022 
    113 H113      -77.4404   20.9574  -77.0234 H         1 UNK         0.0747 
    114 H114      -79.0538   19.7727  -75.5429 H         1 UNK         0.0793 
    115 H115      -77.5043   19.9471  -74.7374 H         1 UNK         0.0793 
    116 H116      -78.8405   20.9990  -74.2914 H         1 UNK         0.0793 
    117 H117      -79.9435   22.0976  -76.2161 H         1 UNK         0.3047 
    118 H118      -80.1315   24.6839  -78.5941 H         1 UNK         0.0822 
    119 H119      -82.1206   23.4838  -79.4581 H         1 UNK         0.0807 
    120 H120      -81.5705   21.9771  -78.7227 H         1 UNK         0.0807 
    121 H121      -80.6579   22.7061  -80.0366 H         1 UNK         0.0807 
    122 H122      -82.1631   23.6638  -76.9457 H         1 UNK         0.2946 
    123 H123      -82.8199   25.1920  -75.2343 H         1 UNK         0.1144 
    124 H124      -80.9282   23.5436  -73.4420 H         1 UNK         0.0793 
    125 H125      -82.2275   22.8918  -74.4333 H         1 UNK         0.0793 
    126 H126      -82.6073   23.9175  -73.0613 H         1 UNK         0.0793 
    127 H127      -80.4226   26.2430  -73.8613 H         1 UNK         0.2896 
@<TRIPOS>BOND
     1    1    2 1    
     2    1   67 1    
     3    1   68 1    
     4    1   69 1    
     5    2    3 2    
     6    2    4 am   BACKBONE|DICT|INTERRES
     7    4    5 1    
     8    4   70 1    
     9    5    6 1    
    10    5   65 1    
    11    5   71 1    
    12    6    7 1    
    13    6   72 1    
    14    6   73 1    
    15    7    8 1    
    16    8    9 1    
    17    8   74 1    
    18    8   75 1    
    19    9   10 ar   
    20    9   14 ar   
    21   10   11 ar   
    22   10   76 1    
    23   11   12 ar   
    24   11   48 1    
    25   12   13 ar   
    26   12   77 1    
    27   13   14 ar   
    28   13   15 1    
    29   14   78 1    
    30   15   16 1    
    31   15   79 1    
    32   15   80 1    
    33   16   17 1    
    34   17   18 1    
    35   17   81 1    
    36   17   82 1    
    37   18   19 1    
    38   18   22 1    
    39   18   83 1    
    40   19   20 am   BACKBONE|DICT|INTERRES
    41   19   21 2    
    42   20   84 1    
    43   20   85 1    
    44   22   23 am   BACKBONE|DICT|INTERRES
    45   22   86 1    
    46   23   24 2    
    47   23   25 1    
    48   25   26 1    
    49   25   27 1    
    50   25   87 1    
    51   26   88 1    
    52   26   89 1    
    53   26   90 1    
    54   27   28 am   BACKBONE|DICT|INTERRES
    55   27   91 1    
    56   28   29 2    
    57   28   30 1    
    58   30   31 1    
    59   30   32 1    
    60   30   92 1    
    61   31   93 1    
    62   31   94 1    
    63   31   95 1    
    64   32   33 am   BACKBONE|DICT|INTERRES
    65   32   96 1    
    66   33   34 2    
    67   33   35 1    
    68   35   36 1    
    69   35   37 1    
    70   35   97 1    
    71   36   98 1    
    72   36   99 1    
    73   36  100 1    
    74   37   38 am   BACKBONE|DICT|INTERRES
    75   37  101 1    
    76   38   39 2    
    77   38   40 1    
    78   40   41 1    
    79   40   42 1    
    80   40  102 1    
    81   41  103 1    
    82   41  104 1    
    83   41  105 1    
    84   42   43 am   BACKBONE|DICT|INTERRES
    85   42  106 1    
    86   43   44 2    
    87   43   45 1    
    88   45   46 1    
    89   45   49 1    
    90   45  107 1    
    91   46   47 1    
    92   46  108 1    
    93   46  109 1    
    94   47   48 1    
    95   48  110 1    
    96   48  111 1    
    97   49   50 am   BACKBONE|DICT|INTERRES
    98   49  112 1    
    99   50   51 2    
   100   50   52 1    
   101   52   53 1    
   102   52   54 1    
   103   52  113 1    
   104   53  114 1    
   105   53  115 1    
   106   53  116 1    
   107   54   55 am   BACKBONE|DICT|INTERRES
   108   54  117 1    
   109   55   56 2    
   110   55   57 1    
   111   57   58 1    
   112   57   59 1    
   113   57  118 1    
   114   58  119 1    
   115   58  120 1    
   116   58  121 1    
   117   59   60 am   BACKBONE|DICT|INTERRES
   118   59  122 1    
   119   60   61 2    
   120   60   62 1    
   121   62   63 1    
   122   62   64 1    
   123   62  123 1    
   124   63  124 1    
   125   63  125 1    
   126   63  126 1    
   127   64   65 am   BACKBONE|DICT|INTERRES
   128   64  127 1    
   129   65   66 2    
@<TRIPOS>SUBSTRUCTURE
     1 UNK         1 GROUP             0       ****    0 ROOT    
