@<TRIPOS>MOLECULE
3R135
127   129    1
SMALL
USER_CHARGES


@<TRIPOS>ATOM
      1 CA        -79.7809   30.6309  -74.7897 C.3       0 UNK        -0.1998 
      2 C         -79.6277   29.2531  -74.1640 C.2       0 UNK         0.4909 
      3 O         -78.6695   28.5471  -74.4725 O.2       0 UNK        -0.5240 
      4 N         -80.5658   28.8702  -73.2878 N.am      1 UNK        -0.4739 
      5 CA        -80.5416   27.6048  -72.5389 C.3       1 UNK         0.0864 
      6 C6        -81.3829   27.6741  -71.2323 C.3       11 UNK        -0.0881 
      7 S7        -81.1315   29.1914  -70.2398 S.3       11 UNK        -0.2682 
      8 C8        -79.7781   28.7191  -69.1143 C.3       11 UNK         0.0289 
      9 C9        -78.4823   28.4733  -69.8714 C.ar      11 UNK        -0.0687 
     10 C10       -77.9567   27.1822  -69.9646 C.ar      11 UNK        -0.0823 
     11 C11       -76.8128   26.9384  -70.7286 C.ar      11 UNK        -0.0830 
     12 C12       -76.1801   28.0012  -71.3806 C.ar      11 UNK        -0.1021 
     13 C13       -76.6846   29.3015  -71.2817 C.ar      11 UNK        -0.0753 
     14 C14       -77.8331   29.5305  -70.5175 C.ar      11 UNK        -0.0933 
     15 C15       -76.0414   30.4499  -72.0511 C.3       11 UNK         0.0166 
     16 S16       -74.2387   30.5589  -71.8019 S.3       11 UNK        -0.2615 
     17 C17       -73.8816   32.1506  -72.6234 C.3       11 UNK        -0.0865 
     18 CA        -73.5830   32.0153  -74.1485 C.3       10 UNK         0.0862 
     19 C         -73.4444   33.3939  -74.8665 C.2       10 UNK         0.5551 
     20 N         -74.3621   34.3226  -74.6301 N.am      10 UNK        -0.7319 
     21 O         -72.5425   33.6272  -75.6700 O.2       10 UNK        -0.5018 
     22 N         -72.4763   31.0903  -74.4492 N.am      10 UNK        -0.4509 
     23 C         -71.1984   31.2052  -74.0663 C.2       10 UNK         0.4899 
     24 O         -70.7807   32.0924  -73.3196 O.2       10 UNK        -0.4839 
     25 CA        -70.2235   30.1383  -74.6106 C.3       9 UNK         0.0222 
     26 CB        -68.8080   30.2692  -74.0158 C.3       9 UNK        -0.1966 
     27 N         -70.7045   28.7698  -74.3921 N.am      9 UNK        -0.4218 
     28 C         -71.6269   28.1422  -75.1321 C.2       9 UNK         0.5020 
     29 O         -72.2088   28.6652  -76.0866 O.2       9 UNK        -0.5274 
     30 CA        -72.0013   26.7210  -74.6855 C.3       8 UNK         0.0270 
     31 CB        -73.0994   26.7756  -73.6093 C.3       8 UNK        -0.1976 
     32 N         -72.4579   25.9069  -75.8165 N.am      8 UNK        -0.4313 
     33 C         -71.6325   25.3497  -76.7167 C.2       8 UNK         0.5041 
     34 O         -70.4063   25.4645  -76.6619 O.2       8 UNK        -0.5577 
     35 CA        -72.2346   24.4903  -77.8480 C.3       7 UNK         0.0284 
     36 CB        -71.7771   23.0270  -77.7122 C.3       7 UNK        -0.1958 
     37 N         -73.6972   24.5146  -77.8897 N.am      7 UNK        -0.4454 
     38 C         -74.4356   25.3933  -78.5799 C.2       7 UNK         0.5089 
     39 O         -73.9613   26.2582  -79.3167 O.2       7 UNK        -0.5125 
     40 CA        -75.9674   25.3027  -78.4090 C.3       6 UNK         0.0408 
     41 CB        -76.5931   24.5521  -79.5945 C.3       6 UNK        -0.1791 
     42 N         -76.4105   24.6870  -77.1475 N.am      6 UNK        -0.4762 
     43 C         -76.1106   25.1614  -75.9263 C.2       6 UNK         0.5007 
     44 O         -75.3919   26.1464  -75.7645 O.2       6 UNK        -0.5032 
     45 CA        -76.6313   24.4078  -74.6855 C.3       5 UNK         0.0783 
     46 C46       -77.1075   25.3844  -73.5845 C.3       11 UNK        -0.0857 
     47 S47       -77.3576   24.5390  -71.9861 S.3       11 UNK        -0.2512 
     48 C48       -76.2897   25.5182  -70.8817 C.3       11 UNK         0.0225 
     49 N         -77.6861   23.4601  -75.0456 N.am      5 UNK        -0.4615 
     50 C         -77.5698   22.1267  -75.0279 C.2       4 UNK         0.5053 
     51 O         -76.5355   21.5340  -74.7205 O.2       4 UNK        -0.5105 
     52 CA        -78.8102   21.3044  -75.4310 C.3       4 UNK         0.0263 
     53 CB        -79.5493   20.8085  -74.1776 C.3       4 UNK        -0.1981 
     54 N         -79.7530   22.0366  -76.2815 N.am      4 UNK        -0.4224 
     55 C         -79.4810   22.4924  -77.5121 C.2       3 UNK         0.4895 
     56 O         -78.4223   22.2735  -78.1005 O.2       3 UNK        -0.5091 
     57 CA        -80.5418   23.3837  -78.1830 C.3       3 UNK         0.0250 
     58 CB        -81.4037   22.5540  -79.1479 C.3       3 UNK        -0.1996 
     59 N         -81.4173   24.1119  -77.2535 N.am      3 UNK        -0.4254 
     60 C         -81.0139   24.9886  -76.3207 C.2       2 UNK         0.5004 
     61 O         -79.8275   25.2366  -76.0943 O.2       2 UNK        -0.5226 
     62 CA        -82.1346   25.7075  -75.5416 C.3       2 UNK         0.0269 
     63 CB        -83.1423   24.7170  -74.9146 C.3       2 UNK        -0.1926 
     64 N         -81.6332   26.6564  -74.5363 N.am      2 UNK        -0.4687 
     65 C         -80.9793   26.3917  -73.3927 C.2       1 UNK         0.5165 
     66 O         -80.7462   25.2546  -72.9816 O.2       1 UNK        -0.5079 
     67 H67       -80.6695   31.1476  -74.4275 H         1 UNK         0.0900 
     68 H68       -79.8553   30.5448  -75.8734 H         1 UNK         0.0900 
     69 H69       -78.9122   31.2456  -74.5552 H         1 UNK         0.0900 
     70 H70       -81.3191   29.5004  -73.0507 H         1 UNK         0.2959 
     71 H71       -79.5041   27.4112  -72.2608 H         1 UNK         0.1079 
     72 H72       -82.4478   27.6266  -71.4686 H         1 UNK         0.0837 
     73 H73       -81.1787   26.8034  -70.6062 H         1 UNK         0.0837 
     74 H74       -79.6229   29.5211  -68.3913 H         1 UNK         0.0685 
     75 H75       -80.0742   27.8396  -68.5403 H         1 UNK         0.0685 
     76 H76       -78.4593   26.3569  -69.4786 H         1 UNK         0.1434 
     77 H77       -75.3042   27.8165  -71.9856 H         1 UNK         0.1329 
     78 H78       -78.2509   30.5260  -70.4548 H         1 UNK         0.1335 
     79 H79       -76.2484   30.3182  -73.1142 H         1 UNK         0.0680 
     80 H80       -76.4965   31.3974  -71.7589 H         1 UNK         0.0680 
     81 H81       -73.0379   32.6148  -72.1110 H         1 UNK         0.1032 
     82 H82       -74.7250   32.8182  -72.4452 H         1 UNK         0.1032 
     83 H83       -74.4555   31.5524  -74.6108 H         1 UNK         0.0461 
     84 H84       -74.2867   35.2100  -75.1028 H         1 UNK         0.3453 
     85 H85       -75.1365   34.1550  -74.0081 H         1 UNK         0.3453 
     86 H86       -72.6945   30.3341  -75.0898 H         1 UNK         0.2984 
     87 H87       -70.1411   30.3084  -75.6862 H         1 UNK         0.0554 
     88 H88       -68.1247   29.5394  -74.4503 H         1 UNK         0.0847 
     89 H89       -68.8090   30.1277  -72.9343 H         1 UNK         0.0847 
     90 H90       -68.3894   31.2568  -74.2149 H         1 UNK         0.0847 
     91 H91       -70.3188   28.2856  -73.5938 H         1 UNK         0.3141 
     92 H92       -71.1200   26.2432  -74.2514 H         1 UNK         0.0743 
     93 H93       -73.4380   25.7780  -73.3292 H         1 UNK         0.0784 
     94 H94       -72.7354   27.2619  -72.7034 H         1 UNK         0.0784 
     95 H95       -73.9660   27.3433  -73.9497 H         1 UNK         0.0784 
     96 H96       -73.4622   25.8713  -75.9647 H         1 UNK         0.3213 
     97 H97       -71.8408   24.8799  -78.7893 H         1 UNK         0.0855 
     98 H98       -72.1209   22.5805  -76.7783 H         1 UNK         0.0814 
     99 H99       -70.6887   22.9534  -77.7264 H         1 UNK         0.0814 
    100 H100      -72.1498   22.4164  -78.5348 H         1 UNK         0.0814 
    101 H101      -74.1817   23.8366  -77.3196 H         1 UNK         0.3105 
    102 H102      -76.3492   26.3257  -78.4195 H         1 UNK         0.0547 
    103 H103      -76.2822   24.9891  -80.5445 H         1 UNK         0.0837 
    104 H104      -76.3004   23.5015  -79.6069 H         1 UNK         0.0837 
    105 H105      -77.6812   24.5973  -79.5625 H         1 UNK         0.0837 
    106 H106      -76.9981   23.8652  -77.2212 H         1 UNK         0.3020 
    107 H107      -75.7636   23.8710  -74.2956 H         1 UNK         0.1245 
    108 H108      -78.0392   25.8703  -73.8779 H         1 UNK         0.0781 
    109 H109      -76.3858   26.1885  -73.4436 H         1 UNK         0.0781 
    110 H110      -75.2675   25.5150  -71.2635 H         1 UNK         0.0836 
    111 H111      -76.2529   25.0368  -69.9034 H         1 UNK         0.0836 
    112 H112      -78.5633   23.8852  -75.3333 H         1 UNK         0.3022 
    113 H113      -78.4588   20.4359  -75.9921 H         1 UNK         0.0747 
    114 H114      -80.3865   20.1609  -74.4384 H         1 UNK         0.0793 
    115 H115      -78.8830   20.2312  -73.5349 H         1 UNK         0.0793 
    116 H116      -79.9355   21.6384  -73.5836 H         1 UNK         0.0793 
    117 H117      -80.6462   22.2714  -75.8741 H         1 UNK         0.3047 
    118 H118      -80.0029   24.1324  -78.7669 H         1 UNK         0.0822 
    119 H119      -82.0845   23.1864  -79.7182 H         1 UNK         0.0807 
    120 H120      -81.9989   21.8084  -78.6191 H         1 UNK         0.0807 
    121 H121      -80.7809   22.0219  -79.8688 H         1 UNK         0.0807 
    122 H122      -82.4093   23.9678  -77.3771 H         1 UNK         0.2946 
    123 H123      -82.6726   26.3120  -76.2738 H         1 UNK         0.1144 
    124 H124      -83.8831   25.2380  -74.3079 H         1 UNK         0.0793 
    125 H125      -82.6500   23.9807  -74.2783 H         1 UNK         0.0793 
    126 H126      -83.6919   24.1672  -75.6789 H         1 UNK         0.0793 
    127 H127      -81.7336   27.6326  -74.7763 H         1 UNK         0.2896 
@<TRIPOS>BOND
     1    1    2 1    
     2    1   67 1    
     3    1   68 1    
     4    1   69 1    
     5    2    3 2    
     6    2    4 am   BACKBONE|DICT|INTERRES
     7    4    5 1    
     8    4   70 1    
     9    5    6 1    
    10    5   65 1    
    11    5   71 1    
    12    6    7 1    
    13    6   72 1    
    14    6   73 1    
    15    7    8 1    
    16    8    9 1    
    17    8   74 1    
    18    8   75 1    
    19    9   10 ar   
    20    9   14 ar   
    21   10   11 ar   
    22   10   76 1    
    23   11   12 ar   
    24   11   48 1    
    25   12   13 ar   
    26   12   77 1    
    27   13   14 ar   
    28   13   15 1    
    29   14   78 1    
    30   15   16 1    
    31   15   79 1    
    32   15   80 1    
    33   16   17 1    
    34   17   18 1    
    35   17   81 1    
    36   17   82 1    
    37   18   19 1    
    38   18   22 1    
    39   18   83 1    
    40   19   20 am   BACKBONE|DICT|INTERRES
    41   19   21 2    
    42   20   84 1    
    43   20   85 1    
    44   22   23 am   BACKBONE|DICT|INTERRES
    45   22   86 1    
    46   23   24 2    
    47   23   25 1    
    48   25   26 1    
    49   25   27 1    
    50   25   87 1    
    51   26   88 1    
    52   26   89 1    
    53   26   90 1    
    54   27   28 am   BACKBONE|DICT|INTERRES
    55   27   91 1    
    56   28   29 2    
    57   28   30 1    
    58   30   31 1    
    59   30   32 1    
    60   30   92 1    
    61   31   93 1    
    62   31   94 1    
    63   31   95 1    
    64   32   33 am   BACKBONE|DICT|INTERRES
    65   32   96 1    
    66   33   34 2    
    67   33   35 1    
    68   35   36 1    
    69   35   37 1    
    70   35   97 1    
    71   36   98 1    
    72   36   99 1    
    73   36  100 1    
    74   37   38 am   BACKBONE|DICT|INTERRES
    75   37  101 1    
    76   38   39 2    
    77   38   40 1    
    78   40   41 1    
    79   40   42 1    
    80   40  102 1    
    81   41  103 1    
    82   41  104 1    
    83   41  105 1    
    84   42   43 am   BACKBONE|DICT|INTERRES
    85   42  106 1    
    86   43   44 2    
    87   43   45 1    
    88   45   46 1    
    89   45   49 1    
    90   45  107 1    
    91   46   47 1    
    92   46  108 1    
    93   46  109 1    
    94   47   48 1    
    95   48  110 1    
    96   48  111 1    
    97   49   50 am   BACKBONE|DICT|INTERRES
    98   49  112 1    
    99   50   51 2    
   100   50   52 1    
   101   52   53 1    
   102   52   54 1    
   103   52  113 1    
   104   53  114 1    
   105   53  115 1    
   106   53  116 1    
   107   54   55 am   BACKBONE|DICT|INTERRES
   108   54  117 1    
   109   55   56 2    
   110   55   57 1    
   111   57   58 1    
   112   57   59 1    
   113   57  118 1    
   114   58  119 1    
   115   58  120 1    
   116   58  121 1    
   117   59   60 am   BACKBONE|DICT|INTERRES
   118   59  122 1    
   119   60   61 2    
   120   60   62 1    
   121   62   63 1    
   122   62   64 1    
   123   62  123 1    
   124   63  124 1    
   125   63  125 1    
   126   63  126 1    
   127   64   65 am   BACKBONE|DICT|INTERRES
   128   64  127 1    
   129   65   66 2    
@<TRIPOS>SUBSTRUCTURE
     1 UNK         1 GROUP             0       ****    0 ROOT    
