@<TRIPOS>MOLECULE
3R135
127   129    1
SMALL
USER_CHARGES


@<TRIPOS>ATOM
      1 CA        -80.2689   21.6773  -72.7472 C.3       0 UNK        -0.1998 
      2 C         -80.9115   23.0069  -73.1090 C.2       0 UNK         0.4909 
      3 O         -81.5742   23.1040  -74.1421 O.2       0 UNK        -0.5240 
      4 N         -80.7150   24.0362  -72.2746 N.am      1 UNK        -0.4739 
      5 CA        -81.2217   25.3973  -72.4800 C.3       1 UNK         0.0864 
      6 C6        -80.9879   26.3077  -71.2477 C.3       11 UNK        -0.0881 
      7 S7        -79.2660   26.3432  -70.6285 S.3       11 UNK        -0.2682 
      8 C8        -79.2630   27.9146  -69.7078 C.3       11 UNK         0.0289 
      9 C9        -78.4442   29.0121  -70.3803 C.ar      11 UNK        -0.0687 
     10 C10       -78.6847   29.3961  -71.7058 C.ar      11 UNK        -0.0823 
     11 C11       -77.9624   30.4478  -72.2831 C.ar      11 UNK        -0.0830 
     12 C12       -77.0028   31.1223  -71.5221 C.ar      11 UNK        -0.1021 
     13 C13       -76.7472   30.7431  -70.2024 C.ar      11 UNK        -0.0753 
     14 C14       -77.4681   29.6868  -69.6407 C.ar      11 UNK        -0.0933 
     15 C15       -75.7187   31.4865  -69.3638 C.3       11 UNK         0.0166 
     16 S16       -74.1098   30.6358  -69.3768 S.3       11 UNK        -0.2615 
     17 C17       -73.1692   31.5910  -70.6191 C.3       11 UNK        -0.0865 
     18 CA        -73.2822   31.0434  -72.0660 C.3       10 UNK         0.0862 
     19 C         -72.4054   31.8969  -73.0248 C.2       10 UNK         0.5551 
     20 N         -72.9834   32.9016  -73.6692 N.am      10 UNK        -0.7319 
     21 O         -71.1997   31.6866  -73.1447 O.2       10 UNK        -0.5018 
     22 N         -72.9873   29.6041  -72.1265 N.am      10 UNK        -0.4509 
     23 C         -73.0734   28.8439  -73.2226 C.2       10 UNK         0.4899 
     24 O         -73.4097   29.2580  -74.3334 O.2       10 UNK        -0.4839 
     25 CA        -72.7476   27.3594  -73.0384 C.3       9 UNK         0.0222 
     26 CB        -73.9187   26.6033  -72.3788 C.3       9 UNK        -0.1966 
     27 N         -72.4182   26.7896  -74.3445 N.am      9 UNK        -0.4218 
     28 C         -71.6810   25.6916  -74.5344 C.2       9 UNK         0.5020 
     29 O         -71.3178   24.9517  -73.6168 O.2       9 UNK        -0.5274 
     30 CA        -71.2706   25.3736  -75.9810 C.3       8 UNK         0.0270 
     31 CB        -70.1257   24.3307  -76.0236 C.3       8 UNK        -0.1976 
     32 N         -72.4352   24.9167  -76.7439 N.am      8 UNK        -0.4313 
     33 C         -72.4419   24.6440  -78.0565 C.2       8 UNK         0.5041 
     34 O         -71.4809   24.8349  -78.8040 O.2       8 UNK        -0.5577 
     35 CA        -73.7262   24.0348  -78.6414 C.3       7 UNK         0.0284 
     36 CB        -74.1179   22.7301  -77.9251 C.3       7 UNK        -0.1958 
     37 N         -74.8445   24.9758  -78.6278 N.am      7 UNK        -0.4454 
     38 C         -74.9562   26.0355  -79.4411 C.2       7 UNK         0.5089 
     39 O         -74.1444   26.3141  -80.3242 O.2       7 UNK        -0.5125 
     40 CA        -76.1882   26.9387  -79.2516 C.3       6 UNK         0.0408 
     41 CB        -77.3655   26.4209  -80.0925 C.3       6 UNK        -0.1791 
     42 N         -76.6050   27.0696  -77.8538 N.am      6 UNK        -0.4762 
     43 C         -75.8751   27.6590  -76.8940 C.2       6 UNK         0.5007 
     44 O         -74.7859   28.1949  -77.1002 O.2       6 UNK        -0.5032 
     45 CA        -76.4346   27.5865  -75.4579 C.3       5 UNK         0.0783 
     46 C46       -77.5731   28.6105  -75.2216 C.3       11 UNK        -0.0857 
     47 S47       -76.9715   30.2943  -74.8789 S.3       11 UNK        -0.2512 
     48 C48       -78.2372   30.8947  -73.7128 C.3       11 UNK         0.0225 
     49 N         -76.8724   26.2323  -75.1092 N.am      5 UNK        -0.4615 
     50 C         -76.1223   25.1226  -75.1278 C.2       4 UNK         0.5053 
     51 O         -74.9234   25.0962  -75.4000 O.2       4 UNK        -0.5105 
     52 CA        -76.8547   23.8051  -74.8401 C.3       4 UNK         0.0263 
     53 CB        -77.0441   23.6026  -73.3282 C.3       4 UNK        -0.1981 
     54 N         -78.1457   23.7464  -75.5306 N.am      4 UNK        -0.4224 
     55 C         -78.2797   23.6364  -76.8610 C.2       3 UNK         0.4895 
     56 O         -77.3323   23.5077  -77.6353 O.2       3 UNK        -0.5091 
     57 CA        -79.7050   23.7237  -77.4298 C.3       3 UNK         0.0250 
     58 CB        -80.4027   22.3561  -77.3660 C.3       3 UNK        -0.1996 
     59 N         -80.5188   24.7345  -76.7494 N.am      3 UNK        -0.4254 
     60 C         -80.3123   26.0561  -76.8605 C.2       2 UNK         0.5004 
     61 O         -79.4414   26.5523  -77.5733 O.2       2 UNK        -0.5226 
     62 CA        -81.1856   26.9863  -75.9983 C.3       2 UNK         0.0269 
     63 CB        -82.4648   27.3762  -76.7549 C.3       2 UNK        -0.1926 
     64 N         -81.5416   26.4298  -74.6886 N.am      2 UNK        -0.4687 
     65 C         -80.6554   26.0154  -73.7727 C.2       1 UNK         0.5165 
     66 O         -79.4363   26.0691  -73.9376 O.2       1 UNK        -0.5079 
     67 H67       -79.6353   21.3323  -73.5639 H         1 UNK         0.0900 
     68 H68       -79.6564   21.7513  -71.8487 H         1 UNK         0.0900 
     69 H69       -81.0385   20.9257  -72.5732 H         1 UNK         0.0900 
     70 H70       -80.1311   23.9188  -71.4587 H         1 UNK         0.2959 
     71 H71       -82.3025   25.3057  -72.6074 H         1 UNK         0.1079 
     72 H72       -81.6206   25.9669  -70.4268 H         1 UNK         0.0837 
     73 H73       -81.3187   27.3249  -71.4663 H         1 UNK         0.0837 
     74 H74       -80.2809   28.2724  -69.5567 H         1 UNK         0.0685 
     75 H75       -78.8714   27.7078  -68.7119 H         1 UNK         0.0685 
     76 H76       -79.4403   28.8809  -72.2823 H         1 UNK         0.1434 
     77 H77       -76.4596   31.9484  -71.9587 H         1 UNK         0.1329 
     78 H78       -77.2771   29.4028  -68.6147 H         1 UNK         0.1335 
     79 H79       -75.6160   32.5175  -69.7047 H         1 UNK         0.0680 
     80 H80       -76.0689   31.5479  -68.3322 H         1 UNK         0.0680 
     81 H81       -73.4799   32.6368  -70.5813 H         1 UNK         0.1032 
     82 H82       -72.1241   31.5874  -70.3018 H         1 UNK         0.1032 
     83 H83       -74.3186   31.1490  -72.3872 H         1 UNK         0.0461 
     84 H84       -73.9701   33.0841  -73.5756 H         1 UNK         0.3453 
     85 H85       -72.4250   33.4761  -74.2810 H         1 UNK         0.3453 
     86 H86       -72.7096   29.1803  -71.2537 H         1 UNK         0.2984 
     87 H87       -71.8674   27.2870  -72.3956 H         1 UNK         0.0554 
     88 H88       -74.1231   26.9928  -71.3807 H         1 UNK         0.0847 
     89 H89       -73.7011   25.5407  -72.2712 H         1 UNK         0.0847 
     90 H90       -74.8389   26.6959  -72.9522 H         1 UNK         0.0847 
     91 H91       -72.6967   27.3643  -75.1325 H         1 UNK         0.3141 
     92 H92       -70.9088   26.3008  -76.4300 H         1 UNK         0.0743 
     93 H93       -70.4645   23.3493  -75.6895 H         1 UNK         0.0784 
     94 H94       -69.7093   24.2177  -77.0238 H         1 UNK         0.0784 
     95 H95       -69.2997   24.6290  -75.3766 H         1 UNK         0.0784 
     96 H96       -73.3046   24.8248  -76.2152 H         1 UNK         0.3213 
     97 H97       -73.5184   23.7794  -79.6830 H         1 UNK         0.0855 
     98 H98       -74.4102   22.8990  -76.8893 H         1 UNK         0.0814 
     99 H99       -73.2863   22.0244  -77.9184 H         1 UNK         0.0814 
    100 H100      -74.9522   22.2410  -78.4281 H         1 UNK         0.0814 
    101 H101      -75.5854   24.7969  -77.9603 H         1 UNK         0.3105 
    102 H102      -75.9264   27.9350  -79.6138 H         1 UNK         0.0547 
    103 H103      -77.0853   26.3257  -81.1423 H         1 UNK         0.0837 
    104 H104      -77.7021   25.4405  -79.7532 H         1 UNK         0.0837 
    105 H105      -78.2162   27.1009  -80.0449 H         1 UNK         0.0837 
    106 H106      -77.5236   26.7008  -77.6184 H         1 UNK         0.3020 
    107 H107      -75.6110   27.8269  -74.7855 H         1 UNK         0.1245 
    108 H108      -78.1638   28.3014  -74.3596 H         1 UNK         0.0781 
    109 H109      -78.2688   28.6421  -76.0616 H         1 UNK         0.0781 
    110 H110      -79.2263   30.5704  -74.0403 H         1 UNK         0.0836 
    111 H111      -78.2533   31.9850  -73.7495 H         1 UNK         0.0836 
    112 H112      -77.8414   26.1431  -74.8089 H         1 UNK         0.3022 
    113 H113      -76.2324   22.9890  -75.2129 H         1 UNK         0.0747 
    114 H114      -77.4684   22.6234  -73.1104 H         1 UNK         0.0793 
    115 H115      -76.0873   23.6605  -72.8072 H         1 UNK         0.0793 
    116 H116      -77.6955   24.3595  -72.8903 H         1 UNK         0.0793 
    117 H117      -78.9711   23.9253  -74.9766 H         1 UNK         0.3047 
    118 H118      -79.6228   24.0106  -78.4806 H         1 UNK         0.0822 
    119 H119      -81.3979   22.3970  -77.8090 H         1 UNK         0.0807 
    120 H120      -80.5061   21.9979  -76.3415 H         1 UNK         0.0807 
    121 H121      -79.8344   21.6049  -77.9163 H         1 UNK         0.0807 
    122 H122      -81.2269   24.4011  -76.1071 H         1 UNK         0.2946 
    123 H123      -80.6065   27.8944  -75.8192 H         1 UNK         0.1144 
    124 H124      -83.0428   28.1179  -76.2033 H         1 UNK         0.0793 
    125 H125      -83.1073   26.5133  -76.9347 H         1 UNK         0.0793 
    126 H126      -82.2256   27.8123  -77.7261 H         1 UNK         0.0793 
    127 H127      -82.5283   26.3332  -74.4945 H         1 UNK         0.2896 
@<TRIPOS>BOND
     1    1    2 1    
     2    1   67 1    
     3    1   68 1    
     4    1   69 1    
     5    2    3 2    
     6    2    4 am   BACKBONE|DICT|INTERRES
     7    4    5 1    
     8    4   70 1    
     9    5    6 1    
    10    5   65 1    
    11    5   71 1    
    12    6    7 1    
    13    6   72 1    
    14    6   73 1    
    15    7    8 1    
    16    8    9 1    
    17    8   74 1    
    18    8   75 1    
    19    9   10 ar   
    20    9   14 ar   
    21   10   11 ar   
    22   10   76 1    
    23   11   12 ar   
    24   11   48 1    
    25   12   13 ar   
    26   12   77 1    
    27   13   14 ar   
    28   13   15 1    
    29   14   78 1    
    30   15   16 1    
    31   15   79 1    
    32   15   80 1    
    33   16   17 1    
    34   17   18 1    
    35   17   81 1    
    36   17   82 1    
    37   18   19 1    
    38   18   22 1    
    39   18   83 1    
    40   19   20 am   BACKBONE|DICT|INTERRES
    41   19   21 2    
    42   20   84 1    
    43   20   85 1    
    44   22   23 am   BACKBONE|DICT|INTERRES
    45   22   86 1    
    46   23   24 2    
    47   23   25 1    
    48   25   26 1    
    49   25   27 1    
    50   25   87 1    
    51   26   88 1    
    52   26   89 1    
    53   26   90 1    
    54   27   28 am   BACKBONE|DICT|INTERRES
    55   27   91 1    
    56   28   29 2    
    57   28   30 1    
    58   30   31 1    
    59   30   32 1    
    60   30   92 1    
    61   31   93 1    
    62   31   94 1    
    63   31   95 1    
    64   32   33 am   BACKBONE|DICT|INTERRES
    65   32   96 1    
    66   33   34 2    
    67   33   35 1    
    68   35   36 1    
    69   35   37 1    
    70   35   97 1    
    71   36   98 1    
    72   36   99 1    
    73   36  100 1    
    74   37   38 am   BACKBONE|DICT|INTERRES
    75   37  101 1    
    76   38   39 2    
    77   38   40 1    
    78   40   41 1    
    79   40   42 1    
    80   40  102 1    
    81   41  103 1    
    82   41  104 1    
    83   41  105 1    
    84   42   43 am   BACKBONE|DICT|INTERRES
    85   42  106 1    
    86   43   44 2    
    87   43   45 1    
    88   45   46 1    
    89   45   49 1    
    90   45  107 1    
    91   46   47 1    
    92   46  108 1    
    93   46  109 1    
    94   47   48 1    
    95   48  110 1    
    96   48  111 1    
    97   49   50 am   BACKBONE|DICT|INTERRES
    98   49  112 1    
    99   50   51 2    
   100   50   52 1    
   101   52   53 1    
   102   52   54 1    
   103   52  113 1    
   104   53  114 1    
   105   53  115 1    
   106   53  116 1    
   107   54   55 am   BACKBONE|DICT|INTERRES
   108   54  117 1    
   109   55   56 2    
   110   55   57 1    
   111   57   58 1    
   112   57   59 1    
   113   57  118 1    
   114   58  119 1    
   115   58  120 1    
   116   58  121 1    
   117   59   60 am   BACKBONE|DICT|INTERRES
   118   59  122 1    
   119   60   61 2    
   120   60   62 1    
   121   62   63 1    
   122   62   64 1    
   123   62  123 1    
   124   63  124 1    
   125   63  125 1    
   126   63  126 1    
   127   64   65 am   BACKBONE|DICT|INTERRES
   128   64  127 1    
   129   65   66 2    
@<TRIPOS>SUBSTRUCTURE
     1 UNK         1 GROUP             0       ****    0 ROOT    
