@<TRIPOS>MOLECULE
3R135
127   129    1
SMALL
USER_CHARGES


@<TRIPOS>ATOM
      1 CA        -82.9698   26.8126  -69.1434 C.3       0 UNK        -0.1998 
      2 C         -83.5641   26.6551  -70.5348 C.2       0 UNK         0.4909 
      3 O         -84.5535   25.9417  -70.7025 O.2       0 UNK        -0.5240 
      4 N         -82.9666   27.3157  -71.5351 N.am      1 UNK        -0.4739 
      5 CA        -83.3809   27.2586  -72.9437 C.3       1 UNK         0.0864 
      6 C6        -82.8581   28.4826  -73.7439 C.3       11 UNK        -0.0881 
      7 S7        -81.0364   28.5710  -73.8950 S.3       11 UNK        -0.2682 
      8 C8        -80.6234   29.7636  -72.5864 C.3       11 UNK         0.0289 
      9 C9        -79.1273   29.7924  -72.3130 C.ar      11 UNK        -0.0687 
     10 C10       -78.4989   28.6848  -71.7355 C.ar      11 UNK        -0.0823 
     11 C11       -77.1316   28.7140  -71.4463 C.ar      11 UNK        -0.0830 
     12 C12       -76.3931   29.8678  -71.7276 C.ar      11 UNK        -0.1021 
     13 C13       -77.0090   30.9797  -72.3110 C.ar      11 UNK        -0.0753 
     14 C14       -78.3751   30.9332  -72.6068 C.ar      11 UNK        -0.0933 
     15 C15       -76.2165   32.2472  -72.5946 C.3       11 UNK         0.0166 
     16 S16       -75.3827   32.1846  -74.2118 S.3       11 UNK        -0.2615 
     17 C17       -73.7848   31.4063  -73.7878 C.3       11 UNK        -0.0865 
     18 CA        -73.4481   30.1614  -74.6641 C.3       10 UNK         0.0862 
     19 C         -72.7964   30.5263  -76.0324 C.2       10 UNK         0.5551 
     20 N         -73.3924   31.4490  -76.7746 N.am      10 UNK        -0.7319 
     21 O         -71.7767   29.9777  -76.4439 O.2       10 UNK        -0.5018 
     22 N         -72.7035   29.1313  -73.9236 N.am      10 UNK        -0.4509 
     23 C         -71.5478   29.3040  -73.2682 C.2       10 UNK         0.4899 
     24 O         -70.9775   30.3888  -73.1463 O.2       10 UNK        -0.4839 
     25 CA        -70.9265   28.0647  -72.6015 C.3       9 UNK         0.0222 
     26 CB        -71.4466   27.9199  -71.1617 C.3       9 UNK        -0.1966 
     27 N         -71.1611   26.8144  -73.3281 N.am      9 UNK        -0.4218 
     28 C         -70.5805   26.4804  -74.4892 C.2       9 UNK         0.5020 
     29 O         -69.7984   27.2113  -75.0986 O.2       9 UNK        -0.5274 
     30 CA        -70.8876   25.0869  -75.0595 C.3       8 UNK         0.0270 
     31 CB        -71.5923   24.1338  -74.0709 C.3       8 UNK        -0.1976 
     32 N         -71.7177   25.2413  -76.2497 N.am      8 UNK        -0.4313 
     33 C         -71.4414   24.7521  -77.4662 C.2       8 UNK         0.5041 
     34 O         -70.4169   24.1182  -77.7264 O.2       8 UNK        -0.5577 
     35 CA        -72.4748   24.9796  -78.5888 C.3       7 UNK         0.0284 
     36 CB        -72.9097   23.6430  -79.2165 C.3       7 UNK        -0.1958 
     37 N         -73.6674   25.6798  -78.1092 N.am      7 UNK        -0.4454 
     38 C         -73.8813   26.9985  -78.2174 C.2       7 UNK         0.5089 
     39 O         -73.1421   27.7601  -78.8398 O.2       7 UNK        -0.5125 
     40 CA        -75.1181   27.5765  -77.4997 C.3       6 UNK         0.0408 
     41 CB        -76.2183   27.9232  -78.5141 C.3       6 UNK        -0.1791 
     42 N         -75.6684   26.6972  -76.4611 N.am      6 UNK        -0.4762 
     43 C         -75.0329   26.3742  -75.3229 C.2       6 UNK         0.5007 
     44 O         -73.9134   26.7977  -75.0362 O.2       6 UNK        -0.5032 
     45 CA        -75.7062   25.3464  -74.3882 C.3       5 UNK         0.0783 
     46 C46       -76.4656   26.0338  -73.2282 C.3       11 UNK        -0.0857 
     47 S47       -75.3188   26.6703  -71.9577 S.3       11 UNK        -0.2512 
     48 C48       -76.4578   27.5059  -70.8110 C.3       11 UNK         0.0225 
     49 N         -76.5450   24.3891  -75.1170 N.am      5 UNK        -0.4615 
     50 C         -76.0708   23.5105  -76.0161 C.2       4 UNK         0.5053 
     51 O         -74.8755   23.4102  -76.2922 O.2       4 UNK        -0.5105 
     52 CA        -77.0798   22.6213  -76.7676 C.3       4 UNK         0.0263 
     53 CB        -77.1575   21.2332  -76.1130 C.3       4 UNK        -0.1981 
     54 N         -78.4267   23.1894  -76.8530 N.am      4 UNK        -0.4224 
     55 C         -78.7412   24.3527  -77.4408 C.2       3 UNK         0.4895 
     56 O         -77.9337   25.0451  -78.0595 O.2       3 UNK        -0.5091 
     57 CA        -80.1839   24.8602  -77.2641 C.3       3 UNK         0.0250 
     58 CB        -81.0283   24.5135  -78.5006 C.3       3 UNK        -0.1996 
     59 N         -80.8705   24.3773  -76.0572 N.am      3 UNK        -0.4254 
     60 C         -80.4353   24.5273  -74.7976 C.2       2 UNK         0.5004 
     61 O         -79.3494   25.0284  -74.4982 O.2       2 UNK        -0.5226 
     62 CA        -81.3765   24.0498  -73.6820 C.3       2 UNK         0.0269 
     63 CB        -80.6146   23.2625  -72.6011 C.3       2 UNK        -0.1926 
     64 N         -82.0146   25.2112  -73.0697 N.am      2 UNK        -0.4687 
     65 C         -83.0024   25.9257  -73.6287 C.2       1 UNK         0.5165 
     66 O         -83.5939   25.5805  -74.6534 O.2       1 UNK        -0.5079 
     67 H67       -82.1032   27.4736  -69.1413 H         1 UNK         0.0900 
     68 H68       -82.6576   25.8427  -68.7570 H         1 UNK         0.0900 
     69 H69       -83.7133   27.2271  -68.4630 H         1 UNK         0.0900 
     70 H70       -82.1559   27.8846  -71.3426 H         1 UNK         0.2959 
     71 H71       -84.4724   27.3049  -72.9644 H         1 UNK         0.1079 
     72 H72       -83.2748   28.4700  -74.7530 H         1 UNK         0.0837 
     73 H73       -83.2291   29.4049  -73.2940 H         1 UNK         0.0837 
     74 H74       -80.9861   30.7504  -72.8786 H         1 UNK         0.0685 
     75 H75       -81.1446   29.5041  -71.6649 H         1 UNK         0.0685 
     76 H76       -79.0781   27.7988  -71.5142 H         1 UNK         0.1434 
     77 H77       -75.3385   29.8937  -71.4922 H         1 UNK         0.1329 
     78 H78       -78.8557   31.7935  -73.0525 H         1 UNK         0.1335 
     79 H79       -76.8865   33.1084  -72.5893 H         1 UNK         0.0680 
     80 H80       -75.4933   32.4322  -71.7990 H         1 UNK         0.0680 
     81 H81       -72.9955   32.1575  -73.8564 H         1 UNK         0.1032 
     82 H82       -73.8097   31.1209  -72.7365 H         1 UNK         0.1032 
     83 H83       -74.3854   29.6618  -74.9117 H         1 UNK         0.0461 
     84 H84       -72.9977   31.6973  -77.6678 H         1 UNK         0.3453 
     85 H85       -74.2237   31.9125  -76.4384 H         1 UNK         0.3453 
     86 H86       -73.0587   28.1871  -74.0457 H         1 UNK         0.2984 
     87 H87       -69.8473   28.2251  -72.5538 H         1 UNK         0.0554 
     88 H88       -70.9565   27.0968  -70.6413 H         1 UNK         0.0847 
     89 H89       -72.5224   27.7426  -71.1355 H         1 UNK         0.0847 
     90 H90       -71.2535   28.8256  -70.5849 H         1 UNK         0.0847 
     91 H91       -71.8066   26.1598  -72.9109 H         1 UNK         0.3141 
     92 H92       -69.9240   24.6442  -75.3201 H         1 UNK         0.0743 
     93 H93       -72.5762   24.4970  -73.7760 H         1 UNK         0.0784 
     94 H94       -71.7312   23.1485  -74.5166 H         1 UNK         0.0784 
     95 H95       -70.9992   23.9929  -73.1662 H         1 UNK         0.0784 
     96 H96       -72.5486   25.8104  -76.1240 H         1 UNK         0.3213 
     97 H97       -71.9812   25.5701  -79.3634 H         1 UNK         0.0855 
     98 H98       -72.0579   23.1198  -79.6528 H         1 UNK         0.0814 
     99 H99       -73.6361   23.7966  -80.0146 H         1 UNK         0.0814 
    100 H100      -73.3567   22.9760  -78.4787 H         1 UNK         0.0814 
    101 H101      -74.3192   25.1231  -77.5682 H         1 UNK         0.3105 
    102 H102      -74.8074   28.5033  -77.0158 H         1 UNK         0.0547 
    103 H103      -77.0939   28.3501  -78.0249 H         1 UNK         0.0837 
    104 H104      -76.5394   27.0466  -79.0772 H         1 UNK         0.0837 
    105 H105      -75.8614   28.6580  -79.2370 H         1 UNK         0.0837 
    106 H106      -76.5590   26.2591  -76.6645 H         1 UNK         0.3020 
    107 H107      -74.9014   24.7538  -73.9491 H         1 UNK         0.1245 
    108 H108      -77.1291   25.3198  -72.7374 H         1 UNK         0.0781 
    109 H109      -77.1063   26.8370  -73.5980 H         1 UNK         0.0781 
    110 H110      -75.8975   27.8300  -69.9329 H         1 UNK         0.0836 
    111 H111      -77.1967   26.7874  -70.4526 H         1 UNK         0.0836 
    112 H112      -77.5468   24.4549  -74.9534 H         1 UNK         0.3022 
    113 H113      -76.7078   22.5013  -77.7873 H         1 UNK         0.0747 
    114 H114      -77.7966   20.5592  -76.6838 H         1 UNK         0.0793 
    115 H115      -76.1702   20.7716  -76.0594 H         1 UNK         0.0793 
    116 H116      -77.5474   21.2876  -75.0957 H         1 UNK         0.0793 
    117 H117      -79.1598   22.6936  -76.3679 H         1 UNK         0.3047 
    118 H118      -80.1273   25.9479  -77.1834 H         1 UNK         0.0822 
    119 H119      -82.0186   24.9661  -78.4456 H         1 UNK         0.0807 
    120 H120      -81.1555   23.4361  -78.6138 H         1 UNK         0.0807 
    121 H121      -80.5566   24.8836  -79.4123 H         1 UNK         0.0807 
    122 H122      -81.7905   23.9840  -76.1991 H         1 UNK         0.2946 
    123 H123      -82.1432   23.3970  -74.1058 H         1 UNK         0.1144 
    124 H124      -80.1152   22.3936  -73.0317 H         1 UNK         0.0793 
    125 H125      -81.2906   22.8973  -71.8277 H         1 UNK         0.0793 
    126 H126      -79.8493   23.8703  -72.1159 H         1 UNK         0.0793 
    127 H127      -81.5695   25.5905  -72.2475 H         1 UNK         0.2896 
@<TRIPOS>BOND
     1    1    2 1    
     2    1   67 1    
     3    1   68 1    
     4    1   69 1    
     5    2    3 2    
     6    2    4 am   BACKBONE|DICT|INTERRES
     7    4    5 1    
     8    4   70 1    
     9    5    6 1    
    10    5   65 1    
    11    5   71 1    
    12    6    7 1    
    13    6   72 1    
    14    6   73 1    
    15    7    8 1    
    16    8    9 1    
    17    8   74 1    
    18    8   75 1    
    19    9   10 ar   
    20    9   14 ar   
    21   10   11 ar   
    22   10   76 1    
    23   11   12 ar   
    24   11   48 1    
    25   12   13 ar   
    26   12   77 1    
    27   13   14 ar   
    28   13   15 1    
    29   14   78 1    
    30   15   16 1    
    31   15   79 1    
    32   15   80 1    
    33   16   17 1    
    34   17   18 1    
    35   17   81 1    
    36   17   82 1    
    37   18   19 1    
    38   18   22 1    
    39   18   83 1    
    40   19   20 am   BACKBONE|DICT|INTERRES
    41   19   21 2    
    42   20   84 1    
    43   20   85 1    
    44   22   23 am   BACKBONE|DICT|INTERRES
    45   22   86 1    
    46   23   24 2    
    47   23   25 1    
    48   25   26 1    
    49   25   27 1    
    50   25   87 1    
    51   26   88 1    
    52   26   89 1    
    53   26   90 1    
    54   27   28 am   BACKBONE|DICT|INTERRES
    55   27   91 1    
    56   28   29 2    
    57   28   30 1    
    58   30   31 1    
    59   30   32 1    
    60   30   92 1    
    61   31   93 1    
    62   31   94 1    
    63   31   95 1    
    64   32   33 am   BACKBONE|DICT|INTERRES
    65   32   96 1    
    66   33   34 2    
    67   33   35 1    
    68   35   36 1    
    69   35   37 1    
    70   35   97 1    
    71   36   98 1    
    72   36   99 1    
    73   36  100 1    
    74   37   38 am   BACKBONE|DICT|INTERRES
    75   37  101 1    
    76   38   39 2    
    77   38   40 1    
    78   40   41 1    
    79   40   42 1    
    80   40  102 1    
    81   41  103 1    
    82   41  104 1    
    83   41  105 1    
    84   42   43 am   BACKBONE|DICT|INTERRES
    85   42  106 1    
    86   43   44 2    
    87   43   45 1    
    88   45   46 1    
    89   45   49 1    
    90   45  107 1    
    91   46   47 1    
    92   46  108 1    
    93   46  109 1    
    94   47   48 1    
    95   48  110 1    
    96   48  111 1    
    97   49   50 am   BACKBONE|DICT|INTERRES
    98   49  112 1    
    99   50   51 2    
   100   50   52 1    
   101   52   53 1    
   102   52   54 1    
   103   52  113 1    
   104   53  114 1    
   105   53  115 1    
   106   53  116 1    
   107   54   55 am   BACKBONE|DICT|INTERRES
   108   54  117 1    
   109   55   56 2    
   110   55   57 1    
   111   57   58 1    
   112   57   59 1    
   113   57  118 1    
   114   58  119 1    
   115   58  120 1    
   116   58  121 1    
   117   59   60 am   BACKBONE|DICT|INTERRES
   118   59  122 1    
   119   60   61 2    
   120   60   62 1    
   121   62   63 1    
   122   62   64 1    
   123   62  123 1    
   124   63  124 1    
   125   63  125 1    
   126   63  126 1    
   127   64   65 am   BACKBONE|DICT|INTERRES
   128   64  127 1    
   129   65   66 2    
@<TRIPOS>SUBSTRUCTURE
     1 UNK         1 GROUP             0       ****    0 ROOT    
