@<TRIPOS>MOLECULE
3R135
127   129    1
SMALL
USER_CHARGES


@<TRIPOS>ATOM
      1 CA        -79.9105   31.2453  -77.5311 C.3       0 UNK        -0.1998 
      2 C         -79.3247   29.8910  -77.9004 C.2       0 UNK         0.4909 
      3 O         -79.0972   29.6221  -79.0801 O.2       0 UNK        -0.5240 
      4 N         -79.0739   29.0378  -76.8989 N.am      1 UNK        -0.4739 
      5 CA        -78.4809   27.7024  -77.0686 C.3       1 UNK         0.0864 
      6 C6        -77.8871   27.1515  -75.7469 C.3       11 UNK        -0.0881 
      7 S7        -76.6947   28.3079  -74.9952 S.3       11 UNK        -0.2682 
      8 C8        -77.6109   28.9110  -73.5403 C.3       11 UNK         0.0289 
      9 C9        -76.9816   28.3757  -72.2673 C.ar      11 UNK        -0.0687 
     10 C10       -77.4094   27.1692  -71.7046 C.ar      11 UNK        -0.0823 
     11 C11       -76.7713   26.6470  -70.5682 C.ar      11 UNK        -0.0830 
     12 C12       -75.7037   27.3573  -70.0050 C.ar      11 UNK        -0.1021 
     13 C13       -75.2706   28.5631  -70.5622 C.ar      11 UNK        -0.0753 
     14 C14       -75.9306   29.0776  -71.6778 C.ar      11 UNK        -0.0933 
     15 C15       -74.0796   29.3083  -69.9786 C.3       11 UNK         0.0166 
     16 S16       -72.4817   28.7047  -70.6287 S.3       11 UNK        -0.2615 
     17 C17       -72.6445   28.8975  -72.4413 C.3       11 UNK        -0.0865 
     18 CA        -72.6842   30.3725  -72.9306 C.3       10 UNK         0.0862 
     19 C         -71.2651   30.9542  -73.2070 C.2       10 UNK         0.5551 
     20 N         -70.9653   31.4607  -74.3982 N.am      10 UNK        -0.7319 
     21 O         -70.4188   30.9641  -72.3169 O.2       10 UNK        -0.5018 
     22 N         -73.6168   30.5145  -74.0581 N.am      10 UNK        -0.4509 
     23 C         -74.3439   31.6096  -74.3207 C.2       10 UNK         0.4899 
     24 O         -74.3876   32.5907  -73.5770 O.2       10 UNK        -0.4839 
     25 CA        -75.1650   31.6110  -75.6297 C.3       9 UNK         0.0222 
     26 CB        -75.4085   33.0338  -76.1762 C.3       9 UNK        -0.1966 
     27 N         -74.6090   30.7417  -76.6764 N.am      9 UNK        -0.4218 
     28 C         -73.3837   30.8173  -77.2189 C.2       9 UNK         0.5020 
     29 O         -72.5573   31.6825  -76.9212 O.2       9 UNK        -0.5274 
     30 CA        -73.0097   29.7178  -78.2337 C.3       8 UNK         0.0270 
     31 CB        -71.4823   29.5887  -78.4206 C.3       8 UNK        -0.1976 
     32 N         -73.5924   28.3984  -77.9417 N.am      8 UNK        -0.4313 
     33 C         -73.4557   27.6818  -76.8157 C.2       8 UNK         0.5041 
     34 O         -72.9045   28.0933  -75.7889 O.2       8 UNK        -0.5577 
     35 CA        -74.0281   26.2584  -76.8542 C.3       7 UNK         0.0284 
     36 CB        -73.2534   25.3666  -77.8452 C.3       7 UNK        -0.1958 
     37 N         -73.9471   25.6928  -75.5128 N.am      7 UNK        -0.4454 
     38 C         -74.6877   24.6876  -75.0373 C.2       7 UNK         0.5089 
     39 O         -75.5205   24.0760  -75.7105 O.2       7 UNK        -0.5125 
     40 CA        -74.4507   24.2861  -73.5721 C.3       6 UNK         0.0408 
     41 CB        -74.1655   25.4943  -72.6564 C.3       6 UNK        -0.1791 
     42 N         -75.6089   23.5347  -73.0935 N.am      6 UNK        -0.4762 
     43 C         -75.6312   22.7052  -72.0424 C.2       6 UNK         0.5007 
     44 O         -74.6567   22.4990  -71.3174 O.2       6 UNK        -0.5032 
     45 CA        -76.9595   21.9744  -71.7370 C.3       5 UNK         0.0783 
     46 C46       -77.7073   22.6054  -70.5339 C.3       11 UNK        -0.0857 
     47 S47       -78.3470   24.2874  -70.8628 S.3       11 UNK        -0.2512 
     48 C48       -77.1579   25.3132  -69.9249 C.3       11 UNK         0.0225 
     49 N         -77.8400   21.8455  -72.9018 N.am      5 UNK        -0.4615 
     50 C         -77.6020   21.0859  -73.9782 C.2       4 UNK         0.5053 
     51 O         -76.5967   20.3846  -74.0980 O.2       4 UNK        -0.5105 
     52 CA        -78.6614   21.0760  -75.1003 C.3       4 UNK         0.0263 
     53 CB        -79.1186   19.6392  -75.4098 C.3       4 UNK        -0.1981 
     54 N         -79.8497   21.8956  -74.8295 N.am      4 UNK        -0.4224 
     55 C         -79.8956   23.2310  -74.9045 C.2       3 UNK         0.4895 
     56 O         -78.9149   23.9410  -75.1296 O.2       3 UNK        -0.5091 
     57 CA        -81.2577   23.8880  -74.6381 C.3       3 UNK         0.0250 
     58 CB        -81.3029   24.4792  -73.2195 C.3       3 UNK        -0.1996 
     59 N         -81.4909   24.9527  -75.6107 N.am      3 UNK        -0.4254 
     60 C         -81.8859   24.7565  -76.8767 C.2       2 UNK         0.5004 
     61 O         -82.2449   23.6667  -77.3243 O.2       2 UNK        -0.5226 
     62 CA        -81.8567   25.9845  -77.8044 C.3       2 UNK         0.0269 
     63 CB        -83.2054   26.7216  -77.7750 C.3       2 UNK        -0.1926 
     64 N         -80.7827   26.9186  -77.4528 N.am      2 UNK        -0.4687 
     65 C         -79.4772   26.6853  -77.6619 C.2       1 UNK         0.5165 
     66 O         -79.0509   25.7118  -78.2839 O.2       1 UNK        -0.5079 
     67 H67       -80.8733   31.3843  -78.0221 H         1 UNK         0.0900 
     68 H68       -79.2431   32.0429  -77.8565 H         1 UNK         0.0900 
     69 H69       -80.0597   31.3464  -76.4563 H         1 UNK         0.0900 
     70 H70       -79.2576   29.3191  -75.9472 H         1 UNK         0.2959 
     71 H71       -77.6631   27.7919  -77.7875 H         1 UNK         0.1079 
     72 H72       -77.3614   26.2131  -75.9347 H         1 UNK         0.0837 
     73 H73       -78.6733   26.9032  -75.0320 H         1 UNK         0.0837 
     74 H74       -77.5828   30.0017  -73.5371 H         1 UNK         0.0685 
     75 H75       -78.6657   28.6389  -73.5888 H         1 UNK         0.0685 
     76 H76       -78.2207   26.6360  -72.1780 H         1 UNK         0.1434 
     77 H77       -75.1891   26.9587  -69.1410 H         1 UNK         0.1329 
     78 H78       -75.5967   30.0078  -72.1148 H         1 UNK         0.1335 
     79 H79       -74.0769   29.1972  -68.8933 H         1 UNK         0.0680 
     80 H80       -74.1723   30.3786  -70.1669 H         1 UNK         0.0680 
     81 H81       -73.5464   28.3689  -72.7477 H         1 UNK         0.1032 
     82 H82       -71.8335   28.3502  -72.9259 H         1 UNK         0.1032 
     83 H83       -73.0804   30.9806  -72.1172 H         1 UNK         0.0461 
     84 H84       -71.6454   31.4767  -75.1510 H         1 UNK         0.3453 
     85 H85       -70.0441   31.8377  -74.5520 H         1 UNK         0.3453 
     86 H86       -73.5933   29.7617  -74.7389 H         1 UNK         0.2984 
     87 H87       -76.1391   31.1945  -75.3733 H         1 UNK         0.0554 
     88 H88       -75.9521   33.6442  -75.4540 H         1 UNK         0.0847 
     89 H89       -76.0028   33.0121  -77.0896 H         1 UNK         0.0847 
     90 H90       -74.4726   33.5484  -76.3962 H         1 UNK         0.0847 
     91 H91       -75.1960   29.9682  -76.9563 H         1 UNK         0.3141 
     92 H92       -73.4324   30.0367  -79.1875 H         1 UNK         0.0743 
     93 H93       -71.0462   30.5270  -78.7658 H         1 UNK         0.0784 
     94 H94       -70.9848   29.3221  -77.4871 H         1 UNK         0.0784 
     95 H95       -71.2352   28.8280  -79.1611 H         1 UNK         0.0784 
     96 H96       -74.0873   27.9711  -78.7130 H         1 UNK         0.3213 
     97 H97       -75.0769   26.3213  -77.1523 H         1 UNK         0.0855 
     98 H98       -73.3120   25.7538  -78.8628 H         1 UNK         0.0814 
     99 H99       -72.1971   25.2993  -77.5815 H         1 UNK         0.0814 
    100 H100      -73.6559   24.3538  -77.8678 H         1 UNK         0.0814 
    101 H101      -73.3269   26.2080  -74.8996 H         1 UNK         0.3105 
    102 H102      -73.5845   23.6219  -73.5592 H         1 UNK         0.0547 
    103 H103      -73.1904   25.9307  -72.8713 H         1 UNK         0.0837 
    104 H104      -74.9144   26.2754  -72.7863 H         1 UNK         0.0837 
    105 H105      -74.1552   25.2164  -71.6029 H         1 UNK         0.0837 
    106 H106      -76.4308   23.6065  -73.6827 H         1 UNK         0.3020 
    107 H107      -76.6760   20.9605  -71.4445 H         1 UNK         0.1245 
    108 H108      -77.0741   22.6072  -69.6448 H         1 UNK         0.0781 
    109 H109      -78.5600   21.9772  -70.2715 H         1 UNK         0.0781 
    110 H110      -76.2402   24.7436  -69.7716 H         1 UNK         0.0836 
    111 H111      -77.5716   25.5029  -68.9337 H         1 UNK         0.0836 
    112 H112      -78.6740   22.4133  -72.8888 H         1 UNK         0.3022 
    113 H113      -78.1726   21.4742  -75.9923 H         1 UNK         0.0747 
    114 H114      -79.8185   19.6161  -76.2453 H         1 UNK         0.0793 
    115 H115      -78.2732   19.0069  -75.6850 H         1 UNK         0.0793 
    116 H116      -79.6044   19.1767  -74.5497 H         1 UNK         0.0793 
    117 H117      -80.6971   21.3920  -74.6076 H         1 UNK         0.3047 
    118 H118      -82.0495   23.1413  -74.7318 H         1 UNK         0.0822 
    119 H119      -82.2647   24.9503  -73.0160 H         1 UNK         0.0807 
    120 H120      -80.5238   25.2278  -73.0671 H         1 UNK         0.0807 
    121 H121      -81.1584   23.7028  -72.4670 H         1 UNK         0.0807 
    122 H122      -81.1824   25.8763  -75.3488 H         1 UNK         0.2946 
    123 H123      -81.6829   25.6241  -78.8212 H         1 UNK         0.1144 
    124 H124      -83.2169   27.5554  -78.4773 H         1 UNK         0.0793 
    125 H125      -83.4327   27.1136  -76.7829 H         1 UNK         0.0793 
    126 H126      -84.0203   26.0526  -78.0555 H         1 UNK         0.0793 
    127 H127      -81.0453   27.7655  -76.9696 H         1 UNK         0.2896 
@<TRIPOS>BOND
     1    1    2 1    
     2    1   67 1    
     3    1   68 1    
     4    1   69 1    
     5    2    3 2    
     6    2    4 am   BACKBONE|DICT|INTERRES
     7    4    5 1    
     8    4   70 1    
     9    5    6 1    
    10    5   65 1    
    11    5   71 1    
    12    6    7 1    
    13    6   72 1    
    14    6   73 1    
    15    7    8 1    
    16    8    9 1    
    17    8   74 1    
    18    8   75 1    
    19    9   10 ar   
    20    9   14 ar   
    21   10   11 ar   
    22   10   76 1    
    23   11   12 ar   
    24   11   48 1    
    25   12   13 ar   
    26   12   77 1    
    27   13   14 ar   
    28   13   15 1    
    29   14   78 1    
    30   15   16 1    
    31   15   79 1    
    32   15   80 1    
    33   16   17 1    
    34   17   18 1    
    35   17   81 1    
    36   17   82 1    
    37   18   19 1    
    38   18   22 1    
    39   18   83 1    
    40   19   20 am   BACKBONE|DICT|INTERRES
    41   19   21 2    
    42   20   84 1    
    43   20   85 1    
    44   22   23 am   BACKBONE|DICT|INTERRES
    45   22   86 1    
    46   23   24 2    
    47   23   25 1    
    48   25   26 1    
    49   25   27 1    
    50   25   87 1    
    51   26   88 1    
    52   26   89 1    
    53   26   90 1    
    54   27   28 am   BACKBONE|DICT|INTERRES
    55   27   91 1    
    56   28   29 2    
    57   28   30 1    
    58   30   31 1    
    59   30   32 1    
    60   30   92 1    
    61   31   93 1    
    62   31   94 1    
    63   31   95 1    
    64   32   33 am   BACKBONE|DICT|INTERRES
    65   32   96 1    
    66   33   34 2    
    67   33   35 1    
    68   35   36 1    
    69   35   37 1    
    70   35   97 1    
    71   36   98 1    
    72   36   99 1    
    73   36  100 1    
    74   37   38 am   BACKBONE|DICT|INTERRES
    75   37  101 1    
    76   38   39 2    
    77   38   40 1    
    78   40   41 1    
    79   40   42 1    
    80   40  102 1    
    81   41  103 1    
    82   41  104 1    
    83   41  105 1    
    84   42   43 am   BACKBONE|DICT|INTERRES
    85   42  106 1    
    86   43   44 2    
    87   43   45 1    
    88   45   46 1    
    89   45   49 1    
    90   45  107 1    
    91   46   47 1    
    92   46  108 1    
    93   46  109 1    
    94   47   48 1    
    95   48  110 1    
    96   48  111 1    
    97   49   50 am   BACKBONE|DICT|INTERRES
    98   49  112 1    
    99   50   51 2    
   100   50   52 1    
   101   52   53 1    
   102   52   54 1    
   103   52  113 1    
   104   53  114 1    
   105   53  115 1    
   106   53  116 1    
   107   54   55 am   BACKBONE|DICT|INTERRES
   108   54  117 1    
   109   55   56 2    
   110   55   57 1    
   111   57   58 1    
   112   57   59 1    
   113   57  118 1    
   114   58  119 1    
   115   58  120 1    
   116   58  121 1    
   117   59   60 am   BACKBONE|DICT|INTERRES
   118   59  122 1    
   119   60   61 2    
   120   60   62 1    
   121   62   63 1    
   122   62   64 1    
   123   62  123 1    
   124   63  124 1    
   125   63  125 1    
   126   63  126 1    
   127   64   65 am   BACKBONE|DICT|INTERRES
   128   64  127 1    
   129   65   66 2    
@<TRIPOS>SUBSTRUCTURE
     1 UNK         1 GROUP             0       ****    0 ROOT    
