@<TRIPOS>MOLECULE
3R135
127   129    1
SMALL
USER_CHARGES


@<TRIPOS>ATOM
      1 CA        -80.5445   24.4839  -70.4140 C.3       0 UNK        -0.1998 
      2 C         -81.6298   25.3625  -71.0157 C.2       0 UNK         0.4909 
      3 O         -82.7976   24.9718  -71.0228 O.2       0 UNK        -0.5240 
      4 N         -81.2574   26.5508  -71.5103 N.am      1 UNK        -0.4739 
      5 CA        -82.1841   27.5287  -72.1008 C.3       1 UNK         0.0864 
      6 C6        -81.6074   28.9658  -72.1062 C.3       11 UNK        -0.0881 
      7 S7        -81.1878   29.5335  -70.4211 S.3       11 UNK        -0.2682 
      8 C8        -79.7256   30.5879  -70.7142 C.3       11 UNK         0.0289 
      9 C9        -78.5552   29.8770  -71.3911 C.ar      11 UNK        -0.0687 
     10 C10       -78.2104   28.5599  -71.0662 C.ar      11 UNK        -0.0823 
     11 C11       -77.1486   27.9195  -71.7123 C.ar      11 UNK        -0.0830 
     12 C12       -76.3985   28.6195  -72.6630 C.ar      11 UNK        -0.1021 
     13 C13       -76.7184   29.9437  -72.9801 C.ar      11 UNK        -0.0753 
     14 C14       -77.8003   30.5620  -72.3477 C.ar      11 UNK        -0.0933 
     15 C15       -75.8991   30.7105  -74.0057 C.3       11 UNK         0.0166 
     16 S16       -74.6195   31.7156  -73.1920 S.3       11 UNK        -0.2615 
     17 C17       -73.7741   32.4658  -74.6299 C.3       11 UNK        -0.0865 
     18 CA        -72.9136   31.4569  -75.4444 C.3       10 UNK         0.0862 
     19 C         -72.2262   32.0920  -76.6902 C.2       10 UNK         0.5551 
     20 N         -71.0858   31.5816  -77.1402 N.am      10 UNK        -0.7319 
     21 O         -72.7472   33.0362  -77.2788 O.2       10 UNK        -0.5018 
     22 N         -72.0335   30.6355  -74.5994 N.am      10 UNK        -0.4509 
     23 C         -70.9653   31.0452  -73.9018 C.2       10 UNK         0.4899 
     24 O         -70.5640   32.2092  -73.8799 O.2       10 UNK        -0.4839 
     25 CA        -70.2075   29.9807  -73.0810 C.3       9 UNK         0.0222 
     26 CB        -70.4903   30.1647  -71.5808 C.3       9 UNK        -0.1966 
     27 N         -70.5297   28.6005  -73.4593 N.am      9 UNK        -0.4218 
     28 C         -70.2093   28.0229  -74.6251 C.2       9 UNK         0.5020 
     29 O         -69.5220   28.5657  -75.4922 O.2       9 UNK        -0.5274 
     30 CA        -70.7961   26.6256  -74.9025 C.3       8 UNK         0.0270 
     31 CB        -71.3068   25.8871  -73.6435 C.3       8 UNK        -0.1976 
     32 N         -71.8491   26.6967  -75.9211 N.am      8 UNK        -0.4313 
     33 C         -72.9702   27.4306  -75.8858 C.2       8 UNK         0.5041 
     34 O         -73.3094   28.1216  -74.9254 O.2       8 UNK        -0.5577 
     35 CA        -73.8735   27.3922  -77.1296 C.3       7 UNK         0.0284 
     36 CB        -73.1942   28.0406  -78.3526 C.3       7 UNK        -0.1958 
     37 N         -74.3858   26.0485  -77.4207 N.am      7 UNK        -0.4454 
     38 C         -73.7079   24.9461  -77.7747 C.2       7 UNK         0.5089 
     39 O         -72.5089   24.9355  -78.0625 O.2       7 UNK        -0.5125 
     40 CA        -74.5151   23.6313  -77.7465 C.3       6 UNK         0.0408 
     41 CB        -73.6172   22.3769  -77.7287 C.3       6 UNK        -0.1791 
     42 N         -75.4889   23.5919  -76.6440 N.am      6 UNK        -0.4762 
     43 C         -75.2291   23.7096  -75.3281 C.2       6 UNK         0.5007 
     44 O         -74.0929   23.8012  -74.8633 O.2       6 UNK        -0.5032 
     45 CA        -76.4287   23.7716  -74.3569 C.3       5 UNK         0.0783 
     46 C46       -76.6814   25.2381  -73.9237 C.3       11 UNK        -0.0857 
     47 S47       -77.7509   25.3263  -72.4507 S.3       11 UNK        -0.2512 
     48 C48       -76.8234   26.4711  -71.3782 C.3       11 UNK         0.0225 
     49 N         -77.6404   23.1546  -74.9102 N.am      5 UNK        -0.4615 
     50 C         -77.7828   21.8435  -75.1573 C.2       4 UNK         0.5053 
     51 O         -76.9531   20.9969  -74.8247 O.2       4 UNK        -0.5105 
     52 CA        -79.0386   21.3903  -75.9305 C.3       4 UNK         0.0263 
     53 CB        -80.0822   20.8140  -74.9598 C.3       4 UNK        -0.1981 
     54 N         -79.6691   22.4421  -76.7350 N.am      4 UNK        -0.4224 
     55 C         -79.0843   23.1550  -77.7098 C.2       3 UNK         0.4895 
     56 O         -77.9432   22.9429  -78.1196 O.2       3 UNK        -0.5091 
     57 CA        -79.8751   24.3439  -78.2910 C.3       3 UNK         0.0250 
     58 CB        -80.4258   23.9894  -79.6818 C.3       3 UNK        -0.1996 
     59 N         -80.9753   24.8337  -77.4481 N.am      3 UNK        -0.4254 
     60 C         -80.8646   25.2779  -76.1873 C.2       2 UNK         0.5004 
     61 O         -79.8026   25.3036  -75.5578 O.2       2 UNK        -0.5226 
     62 CA        -82.1713   25.7059  -75.5083 C.3       2 UNK         0.0269 
     63 CB        -83.1316   24.5101  -75.3405 C.3       2 UNK        -0.1926 
     64 N         -81.8704   26.2721  -74.1974 N.am      2 UNK        -0.4687 
     65 C         -82.6508   27.1175  -73.5133 C.2       1 UNK         0.5165 
     66 O         -83.7144   27.5615  -73.9492 O.2       1 UNK        -0.5079 
     67 H67       -80.9198   23.9699  -69.5296 H         1 UNK         0.0900 
     68 H68       -79.6749   25.0685  -70.1152 H         1 UNK         0.0900 
     69 H69       -80.2250   23.7331  -71.1362 H         1 UNK         0.0900 
     70 H70       -80.2842   26.8197  -71.4945 H         1 UNK         0.2959 
     71 H71       -83.0840   27.5440  -71.4810 H         1 UNK         0.1079 
     72 H72       -80.7293   29.0177  -72.7520 H         1 UNK         0.0837 
     73 H73       -82.3318   29.6692  -72.5217 H         1 UNK         0.0837 
     74 H74       -80.0428   31.4470  -71.3076 H         1 UNK         0.0685 
     75 H75       -79.3839   30.9832  -69.7570 H         1 UNK         0.0685 
     76 H76       -78.7776   28.0268  -70.3160 H         1 UNK         0.1434 
     77 H77       -75.5653   28.1377  -73.1574 H         1 UNK         0.1329 
     78 H78       -78.0465   31.5853  -72.5969 H         1 UNK         0.1335 
     79 H79       -75.4335   30.0108  -74.7005 H         1 UNK         0.0680 
     80 H80       -76.5485   31.3553  -74.5997 H         1 UNK         0.0680 
     81 H81       -73.1462   33.2799  -74.2642 H         1 UNK         0.1032 
     82 H82       -74.5271   32.9314  -75.2683 H         1 UNK         0.1032 
     83 H83       -73.6065   30.7416  -75.8859 H         1 UNK         0.0461 
     84 H84       -70.6474   31.9873  -77.9517 H         1 UNK         0.3453 
     85 H85       -70.6506   30.8071  -76.6621 H         1 UNK         0.3453 
     86 H86       -72.3092   29.6577  -74.5446 H         1 UNK         0.2984 
     87 H87       -69.1402   30.1361  -73.2509 H         1 UNK         0.0554 
     88 H88       -71.5468   30.0212  -71.3494 H         1 UNK         0.0847 
     89 H89       -70.2207   31.1698  -71.2533 H         1 UNK         0.0847 
     90 H90       -69.9134   29.4644  -70.9767 H         1 UNK         0.0847 
     91 H91       -71.1332   28.0877  -72.8325 H         1 UNK         0.3141 
     92 H92       -69.9872   26.0310  -75.3293 H         1 UNK         0.0743 
     93 H93       -72.1697   26.3764  -73.1904 H         1 UNK         0.0784 
     94 H94       -71.6090   24.8691  -73.8910 H         1 UNK         0.0784 
     95 H95       -70.5264   25.8118  -72.8851 H         1 UNK         0.0784 
     96 H96       -71.7082   26.1291  -76.7531 H         1 UNK         0.3213 
     97 H97       -74.7509   27.9968  -76.8927 H         1 UNK         0.0855 
     98 H98       -72.8901   29.0641  -78.1285 H         1 UNK         0.0814 
     99 H99       -73.8735   28.0843  -79.2037 H         1 UNK         0.0814 
    100 H100      -72.3002   27.5023  -78.6674 H         1 UNK         0.0814 
    101 H101      -75.3616   25.9119  -77.1979 H         1 UNK         0.3105 
    102 H102      -75.0964   23.6089  -78.6694 H         1 UNK         0.0547 
    103 H103      -72.9839   22.3372  -78.6157 H         1 UNK         0.0837 
    104 H104      -72.9587   22.3614  -76.8596 H         1 UNK         0.0837 
    105 H105      -74.2125   21.4641  -77.7153 H         1 UNK         0.0837 
    106 H106      -76.4549   23.4709  -76.9366 H         1 UNK         0.3020 
    107 H107      -76.1340   23.1966  -73.4758 H         1 UNK         0.1245 
    108 H108      -77.1461   25.8103  -74.7289 H         1 UNK         0.0781 
    109 H109      -75.7388   25.7429  -73.7030 H         1 UNK         0.0781 
    110 H110      -75.7508   26.2866  -71.4541 H         1 UNK         0.0836 
    111 H111      -77.0870   26.2647  -70.3398 H         1 UNK         0.0836 
    112 H112      -78.3854   23.7925  -75.1713 H         1 UNK         0.3022 
    113 H113      -78.7275   20.5986  -76.6150 H         1 UNK         0.0747 
    114 H114      -80.9386   20.4020  -75.4939 H         1 UNK         0.0793 
    115 H115      -79.6565   20.0057  -74.3632 H         1 UNK         0.0793 
    116 H116      -80.4494   21.5719  -74.2663 H         1 UNK         0.0793 
    117 H117      -80.6086   22.7005  -76.4733 H         1 UNK         0.3047 
    118 H118      -79.1661   25.1667  -78.4040 H         1 UNK         0.0822 
    119 H119      -80.8911   24.8527  -80.1579 H         1 UNK         0.0807 
    120 H120      -81.1677   23.1914  -79.6310 H         1 UNK         0.0807 
    121 H121      -79.6277   23.6500  -80.3441 H         1 UNK         0.0807 
    122 H122      -81.8897   24.8392  -77.8777 H         1 UNK         0.2946 
    123 H123      -82.6378   26.4716  -76.1327 H         1 UNK         0.1144 
    124 H124      -83.4010   24.0712  -76.3017 H         1 UNK         0.0793 
    125 H125      -84.0625   24.8128  -74.8605 H         1 UNK         0.0793 
    126 H126      -82.6874   23.7217  -74.7313 H         1 UNK         0.0793 
    127 H127      -80.9750   25.9952  -73.8134 H         1 UNK         0.2896 
@<TRIPOS>BOND
     1    1    2 1    
     2    1   67 1    
     3    1   68 1    
     4    1   69 1    
     5    2    3 2    
     6    2    4 am   BACKBONE|DICT|INTERRES
     7    4    5 1    
     8    4   70 1    
     9    5    6 1    
    10    5   65 1    
    11    5   71 1    
    12    6    7 1    
    13    6   72 1    
    14    6   73 1    
    15    7    8 1    
    16    8    9 1    
    17    8   74 1    
    18    8   75 1    
    19    9   10 ar   
    20    9   14 ar   
    21   10   11 ar   
    22   10   76 1    
    23   11   12 ar   
    24   11   48 1    
    25   12   13 ar   
    26   12   77 1    
    27   13   14 ar   
    28   13   15 1    
    29   14   78 1    
    30   15   16 1    
    31   15   79 1    
    32   15   80 1    
    33   16   17 1    
    34   17   18 1    
    35   17   81 1    
    36   17   82 1    
    37   18   19 1    
    38   18   22 1    
    39   18   83 1    
    40   19   20 am   BACKBONE|DICT|INTERRES
    41   19   21 2    
    42   20   84 1    
    43   20   85 1    
    44   22   23 am   BACKBONE|DICT|INTERRES
    45   22   86 1    
    46   23   24 2    
    47   23   25 1    
    48   25   26 1    
    49   25   27 1    
    50   25   87 1    
    51   26   88 1    
    52   26   89 1    
    53   26   90 1    
    54   27   28 am   BACKBONE|DICT|INTERRES
    55   27   91 1    
    56   28   29 2    
    57   28   30 1    
    58   30   31 1    
    59   30   32 1    
    60   30   92 1    
    61   31   93 1    
    62   31   94 1    
    63   31   95 1    
    64   32   33 am   BACKBONE|DICT|INTERRES
    65   32   96 1    
    66   33   34 2    
    67   33   35 1    
    68   35   36 1    
    69   35   37 1    
    70   35   97 1    
    71   36   98 1    
    72   36   99 1    
    73   36  100 1    
    74   37   38 am   BACKBONE|DICT|INTERRES
    75   37  101 1    
    76   38   39 2    
    77   38   40 1    
    78   40   41 1    
    79   40   42 1    
    80   40  102 1    
    81   41  103 1    
    82   41  104 1    
    83   41  105 1    
    84   42   43 am   BACKBONE|DICT|INTERRES
    85   42  106 1    
    86   43   44 2    
    87   43   45 1    
    88   45   46 1    
    89   45   49 1    
    90   45  107 1    
    91   46   47 1    
    92   46  108 1    
    93   46  109 1    
    94   47   48 1    
    95   48  110 1    
    96   48  111 1    
    97   49   50 am   BACKBONE|DICT|INTERRES
    98   49  112 1    
    99   50   51 2    
   100   50   52 1    
   101   52   53 1    
   102   52   54 1    
   103   52  113 1    
   104   53  114 1    
   105   53  115 1    
   106   53  116 1    
   107   54   55 am   BACKBONE|DICT|INTERRES
   108   54  117 1    
   109   55   56 2    
   110   55   57 1    
   111   57   58 1    
   112   57   59 1    
   113   57  118 1    
   114   58  119 1    
   115   58  120 1    
   116   58  121 1    
   117   59   60 am   BACKBONE|DICT|INTERRES
   118   59  122 1    
   119   60   61 2    
   120   60   62 1    
   121   62   63 1    
   122   62   64 1    
   123   62  123 1    
   124   63  124 1    
   125   63  125 1    
   126   63  126 1    
   127   64   65 am   BACKBONE|DICT|INTERRES
   128   64  127 1    
   129   65   66 2    
@<TRIPOS>SUBSTRUCTURE
     1 UNK         1 GROUP             0       ****    0 ROOT    
