@<TRIPOS>MOLECULE
3R135
127   129    1
SMALL
USER_CHARGES


@<TRIPOS>ATOM
      1 CA        -79.7854   30.3905  -75.5280 C.3       0 UNK        -0.1998 
      2 C         -79.8699   29.2102  -74.5729 C.2       0 UNK         0.4909 
      3 O         -78.9867   28.3552  -74.5810 O.2       0 UNK        -0.5240 
      4 N         -80.9291   29.1489  -73.7553 N.am      1 UNK        -0.4739 
      5 CA        -81.1500   28.1174  -72.7337 C.3       1 UNK         0.0864 
      6 C6        -82.0685   28.6145  -71.5833 C.3       11 UNK        -0.0881 
      7 S7        -81.5490   30.1997  -70.8417 S.3       11 UNK        -0.2682 
      8 C8        -80.4121   29.6573  -69.5252 C.3       11 UNK         0.0289 
      9 C9        -79.0566   29.2372  -70.0769 C.ar      11 UNK        -0.0687 
     10 C10       -78.6105   27.9174  -69.9413 C.ar      11 UNK        -0.0823 
     11 C11       -77.3630   27.5365  -70.4465 C.ar      11 UNK        -0.0830 
     12 C12       -76.5522   28.4941  -71.0633 C.ar      11 UNK        -0.1021 
     13 C13       -77.0012   29.8050  -71.2389 C.ar      11 UNK        -0.0753 
     14 C14       -78.2484   30.1748  -70.7299 C.ar      11 UNK        -0.0933 
     15 C15       -76.1492   30.8010  -72.0120 C.3       11 UNK         0.0166 
     16 S16       -76.0778   30.3382  -73.7706 S.3       11 UNK        -0.2615 
     17 C17       -75.1364   31.7040  -74.5438 C.3       11 UNK        -0.0865 
     18 CA        -73.6472   31.8879  -74.1046 C.3       10 UNK         0.0862 
     19 C         -73.4766   32.8806  -72.9236 C.2       10 UNK         0.5551 
     20 N         -73.8465   34.1400  -73.1108 N.am      10 UNK        -0.7319 
     21 O         -73.0114   32.5246  -71.8414 O.2       10 UNK        -0.5018 
     22 N         -72.9429   30.6322  -73.8269 N.am      10 UNK        -0.4509 
     23 C         -72.6862   29.6462  -74.6887 C.2       10 UNK         0.4899 
     24 O         -72.9628   29.6794  -75.8902 O.2       10 UNK        -0.4839 
     25 CA        -72.0172   28.4064  -74.0827 C.3       9 UNK         0.0222 
     26 CB        -72.8937   27.7915  -72.9679 C.3       9 UNK        -0.1966 
     27 N         -71.7581   27.4249  -75.1359 N.am      9 UNK        -0.4218 
     28 C         -70.8926   26.4084  -75.0466 C.2       9 UNK         0.5020 
     29 O         -70.1943   26.2058  -74.0507 O.2       9 UNK        -0.5274 
     30 CA        -70.7712   25.4645  -76.2569 C.3       8 UNK         0.0270 
     31 CB        -70.2065   24.0790  -75.8747 C.3       8 UNK        -0.1976 
     32 N         -72.0406   25.3003  -76.9733 N.am      8 UNK        -0.4313 
     33 C         -72.1289   25.0025  -78.2793 C.2       8 UNK         0.5041 
     34 O         -71.1472   24.9080  -79.0186 O.2       8 UNK        -0.5577 
     35 CA        -73.5233   24.7405  -78.8853 C.3       7 UNK         0.0284 
     36 CB        -73.7828   23.2279  -78.9795 C.3       7 UNK        -0.1958 
     37 N         -74.6287   25.3699  -78.1629 N.am      7 UNK        -0.4454 
     38 C         -74.8003   26.6910  -78.0250 C.2       7 UNK         0.5089 
     39 O         -74.0961   27.5312  -78.5852 O.2       7 UNK        -0.5125 
     40 CA        -75.9219   27.1613  -77.0818 C.3       6 UNK         0.0408 
     41 CB        -77.1753   27.5413  -77.8848 C.3       6 UNK        -0.1791 
     42 N         -76.3033   26.2108  -76.0308 N.am      6 UNK        -0.4762 
     43 C         -75.4888   25.6610  -75.1177 C.2       6 UNK         0.5007 
     44 O         -74.2626   25.7449  -75.1486 O.2       6 UNK        -0.5032 
     45 CA        -76.1641   24.8581  -73.9945 C.3       5 UNK         0.0783 
     46 C46       -77.1046   25.7690  -73.1686 C.3       11 UNK        -0.0857 
     47 S47       -77.6769   25.0191  -71.6082 S.3       11 UNK        -0.2512 
     48 C48       -76.8941   26.0888  -70.3502 C.3       11 UNK         0.0225 
     49 N         -76.8505   23.7089  -74.5817 N.am      5 UNK        -0.4615 
     50 C         -76.2341   22.5892  -74.9845 C.2       4 UNK         0.5053 
     51 O         -75.0451   22.3494  -74.7751 O.2       4 UNK        -0.5105 
     52 CA        -77.0752   21.5621  -75.7646 C.3       4 UNK         0.0263 
     53 CB        -77.6238   20.4867  -74.8132 C.3       4 UNK        -0.1981 
     54 N         -78.1873   22.1599  -76.5077 N.am      4 UNK        -0.4224 
     55 C         -78.0594   22.9949  -77.5501 C.2       3 UNK         0.4895 
     56 O         -76.9801   23.3254  -78.0408 O.2       3 UNK        -0.5091 
     57 CA        -79.3629   23.6110  -78.0929 C.3       3 UNK         0.0250 
     58 CB        -80.0194   22.6763  -79.1212 C.3       3 UNK        -0.1996 
     59 N         -80.3260   23.9386  -77.0317 N.am      3 UNK        -0.4254 
     60 C         -80.0754   24.8149  -76.0497 C.2       2 UNK         0.5004 
     61 O         -79.0261   25.4557  -75.9697 O.2       2 UNK        -0.5226 
     62 CA        -81.1200   24.9451  -74.9375 C.3       2 UNK         0.0269 
     63 CB        -81.0421   23.7368  -73.9828 C.3       2 UNK        -0.1926 
     64 N         -80.8493   26.1787  -74.2044 N.am      2 UNK        -0.4687 
     65 C         -81.6758   26.8084  -73.3667 C.2       1 UNK         0.5165 
     66 O         -82.8131   26.4058  -73.1123 O.2       1 UNK        -0.5079 
     67 H67       -78.8638   30.9447  -75.3514 H         1 UNK         0.0900 
     68 H68       -80.6237   31.0758  -75.4058 H         1 UNK         0.0900 
     69 H69       -79.7786   30.0378  -76.5589 H         1 UNK         0.0900 
     70 H70       -81.6324   29.8724  -73.7962 H         1 UNK         0.2959 
     71 H71       -80.1813   27.8726  -72.2933 H         1 UNK         0.1079 
     72 H72       -83.0878   28.7561  -71.9481 H         1 UNK         0.0837 
     73 H73       -82.1351   27.8601  -70.7970 H         1 UNK         0.0837 
     74 H74       -80.8732   28.8538  -68.9489 H         1 UNK         0.0685 
     75 H75       -80.2645   30.4849  -68.8300 H         1 UNK         0.0685 
     76 H76       -79.2377   27.1810  -69.4575 H         1 UNK         0.1434 
     77 H77       -75.5868   28.2102  -71.4584 H         1 UNK         0.1329 
     78 H78       -78.6035   31.1881  -70.8579 H         1 UNK         0.1335 
     79 H79       -75.1432   30.8081  -71.5925 H         1 UNK         0.0680 
     80 H80       -76.5441   31.8136  -71.9163 H         1 UNK         0.0680 
     81 H81       -75.1466   31.4998  -75.6154 H         1 UNK         0.1032 
     82 H82       -75.7090   32.6265  -74.4353 H         1 UNK         0.1032 
     83 H83       -73.1122   32.3501  -74.9366 H         1 UNK         0.0461 
     84 H84       -74.2118   34.4542  -73.9963 H         1 UNK         0.3453 
     85 H85       -73.7404   34.7971  -72.3536 H         1 UNK         0.3453 
     86 H86       -72.6543   30.5417  -72.8614 H         1 UNK         0.2984 
     87 H87       -71.0610   28.7200  -73.6589 H         1 UNK         0.0554 
     88 H88       -72.4954   26.8412  -72.6129 H         1 UNK         0.0847 
     89 H89       -73.9131   27.6173  -73.3126 H         1 UNK         0.0847 
     90 H90       -72.9557   28.4517  -72.1026 H         1 UNK         0.0847 
     91 H91       -72.2754   27.5821  -75.9926 H         1 UNK         0.3141 
     92 H92       -70.0542   25.9480  -76.9237 H         1 UNK         0.0743 
     93 H93       -69.2346   24.1671  -75.3875 H         1 UNK         0.0784 
     94 H94       -70.0646   23.4481  -76.7522 H         1 UNK         0.0784 
     95 H95       -70.8724   23.5540  -75.1888 H         1 UNK         0.0784 
     96 H96       -72.8880   25.3818  -76.4112 H         1 UNK         0.3213 
     97 H97       -73.5158   25.1494  -79.8978 H         1 UNK         0.0855 
     98 H98       -73.8701   22.7722  -77.9921 H         1 UNK         0.0814 
     99 H99       -72.9713   22.7213  -79.5040 H         1 UNK         0.0814 
    100 H100      -74.7006   23.0170  -79.5285 H         1 UNK         0.0814 
    101 H101      -75.2967   24.7518  -77.7166 H         1 UNK         0.3105 
    102 H102      -75.5580   28.0582  -76.5759 H         1 UNK         0.0547 
    103 H103      -77.9391   27.9774  -77.2402 H         1 UNK         0.0837 
    104 H104      -76.9413   28.2772  -78.6551 H         1 UNK         0.0837 
    105 H105      -77.6119   26.6728  -78.3793 H         1 UNK         0.0837 
    106 H106      -77.3037   26.0304  -75.9471 H         1 UNK         0.3020 
    107 H107      -75.3721   24.4997  -73.3323 H         1 UNK         0.1245 
    108 H108      -77.9891   26.0422  -73.7401 H         1 UNK         0.0781 
    109 H109      -76.6046   26.7117  -72.9577 H         1 UNK         0.0781 
    110 H110      -77.1271   25.6967  -69.3592 H         1 UNK         0.0836 
    111 H111      -75.8094   26.0274  -70.4529 H         1 UNK         0.0836 
    112 H112      -77.8154   23.8555  -74.8399 H         1 UNK         0.3022 
    113 H113      -76.4133   21.0786  -76.4865 H         1 UNK         0.0747 
    114 H114      -78.1542   19.7059  -75.3587 H         1 UNK         0.0793 
    115 H115      -76.8146   20.0026  -74.2644 H         1 UNK         0.0793 
    116 H116      -78.3090   20.9093  -74.0769 H         1 UNK         0.0793 
    117 H117      -79.1180   21.9454  -76.1818 H         1 UNK         0.3047 
    118 H118      -79.0970   24.5418  -78.5987 H         1 UNK         0.0822 
    119 H119      -80.8928   23.1411  -79.5789 H         1 UNK         0.0807 
    120 H120      -80.3362   21.7347  -78.6711 H         1 UNK         0.0807 
    121 H121      -79.3242   22.4348  -79.9267 H         1 UNK         0.0807 
    122 H122      -81.2059   23.4420  -77.0411 H         1 UNK         0.2946 
    123 H123      -82.1117   25.0069  -75.3908 H         1 UNK         0.1144 
    124 H124      -81.7917   23.8019  -73.1942 H         1 UNK         0.0793 
    125 H125      -80.0640   23.6651  -73.5045 H         1 UNK         0.0793 
    126 H126      -81.2191   22.7997  -74.5117 H         1 UNK         0.0793 
    127 H127      -79.9636   26.6263  -74.4386 H         1 UNK         0.2896 
@<TRIPOS>BOND
     1    1    2 1    
     2    1   67 1    
     3    1   68 1    
     4    1   69 1    
     5    2    3 2    
     6    2    4 am   BACKBONE|DICT|INTERRES
     7    4    5 1    
     8    4   70 1    
     9    5    6 1    
    10    5   65 1    
    11    5   71 1    
    12    6    7 1    
    13    6   72 1    
    14    6   73 1    
    15    7    8 1    
    16    8    9 1    
    17    8   74 1    
    18    8   75 1    
    19    9   10 ar   
    20    9   14 ar   
    21   10   11 ar   
    22   10   76 1    
    23   11   12 ar   
    24   11   48 1    
    25   12   13 ar   
    26   12   77 1    
    27   13   14 ar   
    28   13   15 1    
    29   14   78 1    
    30   15   16 1    
    31   15   79 1    
    32   15   80 1    
    33   16   17 1    
    34   17   18 1    
    35   17   81 1    
    36   17   82 1    
    37   18   19 1    
    38   18   22 1    
    39   18   83 1    
    40   19   20 am   BACKBONE|DICT|INTERRES
    41   19   21 2    
    42   20   84 1    
    43   20   85 1    
    44   22   23 am   BACKBONE|DICT|INTERRES
    45   22   86 1    
    46   23   24 2    
    47   23   25 1    
    48   25   26 1    
    49   25   27 1    
    50   25   87 1    
    51   26   88 1    
    52   26   89 1    
    53   26   90 1    
    54   27   28 am   BACKBONE|DICT|INTERRES
    55   27   91 1    
    56   28   29 2    
    57   28   30 1    
    58   30   31 1    
    59   30   32 1    
    60   30   92 1    
    61   31   93 1    
    62   31   94 1    
    63   31   95 1    
    64   32   33 am   BACKBONE|DICT|INTERRES
    65   32   96 1    
    66   33   34 2    
    67   33   35 1    
    68   35   36 1    
    69   35   37 1    
    70   35   97 1    
    71   36   98 1    
    72   36   99 1    
    73   36  100 1    
    74   37   38 am   BACKBONE|DICT|INTERRES
    75   37  101 1    
    76   38   39 2    
    77   38   40 1    
    78   40   41 1    
    79   40   42 1    
    80   40  102 1    
    81   41  103 1    
    82   41  104 1    
    83   41  105 1    
    84   42   43 am   BACKBONE|DICT|INTERRES
    85   42  106 1    
    86   43   44 2    
    87   43   45 1    
    88   45   46 1    
    89   45   49 1    
    90   45  107 1    
    91   46   47 1    
    92   46  108 1    
    93   46  109 1    
    94   47   48 1    
    95   48  110 1    
    96   48  111 1    
    97   49   50 am   BACKBONE|DICT|INTERRES
    98   49  112 1    
    99   50   51 2    
   100   50   52 1    
   101   52   53 1    
   102   52   54 1    
   103   52  113 1    
   104   53  114 1    
   105   53  115 1    
   106   53  116 1    
   107   54   55 am   BACKBONE|DICT|INTERRES
   108   54  117 1    
   109   55   56 2    
   110   55   57 1    
   111   57   58 1    
   112   57   59 1    
   113   57  118 1    
   114   58  119 1    
   115   58  120 1    
   116   58  121 1    
   117   59   60 am   BACKBONE|DICT|INTERRES
   118   59  122 1    
   119   60   61 2    
   120   60   62 1    
   121   62   63 1    
   122   62   64 1    
   123   62  123 1    
   124   63  124 1    
   125   63  125 1    
   126   63  126 1    
   127   64   65 am   BACKBONE|DICT|INTERRES
   128   64  127 1    
   129   65   66 2    
@<TRIPOS>SUBSTRUCTURE
     1 UNK         1 GROUP             0       ****    0 ROOT    
