@<TRIPOS>MOLECULE
3R135
127   129    1
SMALL
USER_CHARGES


@<TRIPOS>ATOM
      1 CA        -83.9670   24.0663  -71.6400 C.3       0 UNK        -0.1998 
      2 C         -83.1439   25.2277  -72.1756 C.2       0 UNK         0.4909 
      3 O         -83.6822   26.0965  -72.8636 O.2       0 UNK        -0.5240 
      4 N         -81.8397   25.2509  -71.8732 N.am      1 UNK        -0.4739 
      5 CA        -80.8868   26.2820  -72.2982 C.3       1 UNK         0.0864 
      6 C6        -79.6437   26.3361  -71.3707 C.3       11 UNK        -0.0881 
      7 S7        -80.0113   27.0073  -69.7150 S.3       11 UNK        -0.2682 
      8 C8        -80.1903   28.7993  -70.0321 C.3       11 UNK         0.0289 
      9 C9        -79.0536   29.3845  -70.8630 C.ar      11 UNK        -0.0687 
     10 C10       -79.2856   29.7956  -72.1807 C.ar      11 UNK        -0.0823 
     11 C11       -78.2474   30.3210  -72.9561 C.ar      11 UNK        -0.0830 
     12 C12       -76.9695   30.4271  -72.4013 C.ar      11 UNK        -0.1021 
     13 C13       -76.7237   30.0390  -71.0792 C.ar      11 UNK        -0.0753 
     14 C14       -77.7729   29.5158  -70.3164 C.ar      11 UNK        -0.0933 
     15 C15       -75.3244   30.1476  -70.4813 C.3       11 UNK         0.0166 
     16 S16       -74.4807   31.7011  -70.9306 S.3       11 UNK        -0.2615 
     17 C17       -72.7411   31.3043  -70.5643 C.3       11 UNK        -0.0865 
     18 CA        -71.9916   30.7410  -71.8038 C.3       10 UNK         0.0862 
     19 C         -70.4617   30.9262  -71.6411 C.2       10 UNK         0.5551 
     20 N         -69.8986   31.9802  -72.2147 N.am      10 UNK        -0.7319 
     21 O         -69.7901   30.1470  -70.9661 O.2       10 UNK        -0.5018 
     22 N         -72.2802   29.3152  -71.9987 N.am      10 UNK        -0.4509 
     23 C         -72.8304   28.7546  -73.0800 C.2       10 UNK         0.4899 
     24 O         -73.2927   29.3763  -74.0383 O.2       10 UNK        -0.4839 
     25 CA        -72.8934   27.2166  -73.0563 C.3       9 UNK         0.0222 
     26 CB        -74.2481   26.7357  -72.5121 C.3       9 UNK        -0.1966 
     27 N         -72.6188   26.5961  -74.3605 N.am      9 UNK        -0.4218 
     28 C         -71.4283   26.6687  -74.9779 C.2       9 UNK         0.5020 
     29 O         -70.4953   27.3513  -74.5490 O.2       9 UNK        -0.5274 
     30 CA        -71.1607   25.8156  -76.2330 C.3       8 UNK         0.0270 
     31 CB        -70.1100   24.7320  -75.8932 C.3       8 UNK        -0.1976 
     32 N         -72.3384   25.1916  -76.8543 N.am      8 UNK        -0.4313 
     33 C         -72.3205   24.6493  -78.0823 C.2       8 UNK         0.5041 
     34 O         -71.3610   24.7278  -78.8521 O.2       8 UNK        -0.5577 
     35 CA        -73.5600   23.8587  -78.5292 C.3       7 UNK         0.0284 
     36 CB        -73.8135   22.6407  -77.6238 C.3       7 UNK        -0.1958 
     37 N         -74.7548   24.6953  -78.6056 N.am      7 UNK        -0.4454 
     38 C         -74.9963   25.5828  -79.5807 C.2       7 UNK         0.5089 
     39 O         -74.2503   25.7682  -80.5429 O.2       7 UNK        -0.5125 
     40 CA        -76.2964   26.3999  -79.4775 C.3       6 UNK         0.0408 
     41 CB        -77.4394   25.6792  -80.2091 C.3       6 UNK        -0.1791 
     42 N         -76.7006   26.6712  -78.0971 N.am      6 UNK        -0.4762 
     43 C         -76.0161   27.4439  -77.2398 C.2       6 UNK         0.5007 
     44 O         -74.9919   28.0586  -77.5386 O.2       6 UNK        -0.5032 
     45 CA        -76.5411   27.4879  -75.7917 C.3       5 UNK         0.0783 
     46 C46       -77.7759   28.4135  -75.6579 C.3       11 UNK        -0.0857 
     47 S47       -77.3354   30.1786  -75.6097 S.3       11 UNK        -0.2512 
     48 C48       -78.5192   30.8144  -74.3746 C.3       11 UNK         0.0225 
     49 N         -76.8417   26.1458  -75.2865 N.am      5 UNK        -0.4615 
     50 C         -75.9885   25.1200  -75.1787 C.2       4 UNK         0.5053 
     51 O         -74.7877   25.1904  -75.4422 O.2       4 UNK        -0.5105 
     52 CA        -76.5851   23.7802  -74.7245 C.3       4 UNK         0.0263 
     53 CB        -76.6760   23.7116  -73.1921 C.3       4 UNK        -0.1981 
     54 N         -77.9103   23.5596  -75.3051 N.am      4 UNK        -0.4224 
     55 C         -78.1273   23.1971  -76.5765 C.2       3 UNK         0.4895 
     56 O         -77.2287   22.9709  -77.3866 O.2       3 UNK        -0.5091 
     57 CA        -79.5950   23.0920  -77.0266 C.3       3 UNK         0.0250 
     58 CB        -80.1860   21.7291  -76.6321 C.3       3 UNK        -0.1996 
     59 N         -80.4424   24.1657  -76.4984 N.am      3 UNK        -0.4254 
     60 C         -80.3104   25.4578  -76.8280 C.2       2 UNK         0.5004 
     61 O         -79.4568   25.8825  -77.6063 O.2       2 UNK        -0.5226 
     62 CA        -81.2634   26.4549  -76.1460 C.3       2 UNK         0.0269 
     63 CB        -82.6381   26.4400  -76.8331 C.3       2 UNK        -0.1926 
     64 N         -81.4431   26.2927  -74.6954 N.am      2 UNK        -0.4687 
     65 C         -80.4834   26.1097  -73.7776 C.2       1 UNK         0.5165 
     66 O         -79.3197   25.8270  -74.0585 O.2       1 UNK        -0.5079 
     67 H67       -84.7735   24.4386  -71.0089 H         1 UNK         0.0900 
     68 H68       -84.4092   23.5083  -72.4648 H         1 UNK         0.0900 
     69 H69       -83.3639   23.3776  -71.0486 H         1 UNK         0.0900 
     70 H70       -81.4507   24.5076  -71.3106 H         1 UNK         0.2959 
     71 H71       -81.3844   27.2520  -72.2407 H         1 UNK         0.1079 
     72 H72       -78.8399   26.9319  -71.8063 H         1 UNK         0.0837 
     73 H73       -79.2208   25.3374  -71.2487 H         1 UNK         0.0837 
     74 H74       -81.1515   28.9774  -70.5163 H         1 UNK         0.0685 
     75 H75       -80.2374   29.3199  -69.0746 H         1 UNK         0.0685 
     76 H76       -80.2781   29.7116  -72.6014 H         1 UNK         0.1434 
     77 H77       -76.1628   30.8233  -73.0030 H         1 UNK         0.1329 
     78 H78       -77.5942   29.1967  -69.2985 H         1 UNK         0.1335 
     79 H79       -75.3620   30.0764  -69.3932 H         1 UNK         0.0680 
     80 H80       -74.7416   29.2974  -70.8288 H         1 UNK         0.0680 
     81 H81       -72.6781   30.6214  -69.7150 H         1 UNK         0.1032 
     82 H82       -72.2825   32.2367  -70.2278 H         1 UNK         0.1032 
     83 H83       -72.2988   31.3044  -72.6878 H         1 UNK         0.0461 
     84 H84       -68.9068   32.1259  -72.1069 H         1 UNK         0.3453 
     85 H85       -70.4438   32.6315  -72.7583 H         1 UNK         0.3453 
     86 H86       -71.8795   28.7108  -71.2949 H         1 UNK         0.2984 
     87 H87       -72.1221   26.8532  -72.3733 H         1 UNK         0.0554 
     88 H88       -74.3861   27.0509  -71.4778 H         1 UNK         0.0847 
     89 H89       -74.3142   25.6489  -72.5217 H         1 UNK         0.0847 
     90 H90       -75.0852   27.1356  -73.0826 H         1 UNK         0.0847 
     91 H91       -73.3771   26.0567  -74.7690 H         1 UNK         0.3141 
     92 H92       -70.7248   26.4993  -76.9647 H         1 UNK         0.0743 
     93 H93       -70.5186   23.9802  -75.2171 H         1 UNK         0.0784 
     94 H94       -69.7491   24.2186  -76.7840 H         1 UNK         0.0784 
     95 H95       -69.2334   25.1638  -75.4082 H         1 UNK         0.0784 
     96 H96       -73.1951   25.1294  -76.3076 H         1 UNK         0.3213 
     97 H97       -73.3570   23.4746  -79.5316 H         1 UNK         0.0855 
     98 H98       -74.0426   22.9261  -76.5983 H         1 UNK         0.0814 
     99 H99       -72.9359   21.9938  -77.5907 H         1 UNK         0.0814 
    100 H100      -74.6436   22.0394  -77.9948 H         1 UNK         0.0814 
    101 H101      -75.4356   24.5956  -77.8649 H         1 UNK         0.3105 
    102 H102      -76.1263   27.3589  -79.9712 H         1 UNK         0.0547 
    103 H103      -77.1736   25.4753  -81.2472 H         1 UNK         0.0837 
    104 H104      -77.6797   24.7247  -79.7385 H         1 UNK         0.0837 
    105 H105      -78.3468   26.2833  -80.2195 H         1 UNK         0.0837 
    106 H106      -77.5717   26.2456  -77.7874 H         1 UNK         0.3020 
    107 H107      -75.7356   27.8879  -75.1721 H         1 UNK         0.1245 
    108 H108      -78.3042   28.1817  -74.7329 H         1 UNK         0.0781 
    109 H109      -78.4963   28.2462  -76.4601 H         1 UNK         0.0781 
    110 H110      -79.5304   30.5545  -74.6921 H         1 UNK         0.0836 
    111 H111      -78.4694   31.9039  -74.3754 H         1 UNK         0.0836 
    112 H112      -77.8008   25.9917  -74.9803 H         1 UNK         0.3022 
    113 H113      -75.9227   22.9802  -75.0607 H         1 UNK         0.0747 
    114 H114      -77.1386   22.7809  -72.8635 H         1 UNK         0.0793 
    115 H115      -75.6838   23.7505  -72.7427 H         1 UNK         0.0793 
    116 H116      -77.2560   24.5380  -72.7795 H         1 UNK         0.0793 
    117 H117      -78.7036   23.8230  -74.7350 H         1 UNK         0.3047 
    118 H118      -79.6070   23.1649  -78.1165 H         1 UNK         0.0822 
    119 H119      -81.1943   21.6046  -77.0275 H         1 UNK         0.0807 
    120 H120      -80.2313   21.6038  -75.5495 H         1 UNK         0.0807 
    121 H121      -79.5813   20.9127  -77.0297 H         1 UNK         0.0807 
    122 H122      -81.1611   23.9089  -75.8373 H         1 UNK         0.2946 
    123 H123      -80.8309   27.4462  -76.2939 H         1 UNK         0.1144 
    124 H124      -83.1631   25.4987  -76.6661 H         1 UNK         0.0793 
    125 H125      -82.5396   26.5731  -77.9117 H         1 UNK         0.0793 
    126 H126      -83.2735   27.2466  -76.4668 H         1 UNK         0.0793 
    127 H127      -82.3826   26.4400  -74.3379 H         1 UNK         0.2896 
@<TRIPOS>BOND
     1    1    2 1    
     2    1   67 1    
     3    1   68 1    
     4    1   69 1    
     5    2    3 2    
     6    2    4 am   BACKBONE|DICT|INTERRES
     7    4    5 1    
     8    4   70 1    
     9    5    6 1    
    10    5   65 1    
    11    5   71 1    
    12    6    7 1    
    13    6   72 1    
    14    6   73 1    
    15    7    8 1    
    16    8    9 1    
    17    8   74 1    
    18    8   75 1    
    19    9   10 ar   
    20    9   14 ar   
    21   10   11 ar   
    22   10   76 1    
    23   11   12 ar   
    24   11   48 1    
    25   12   13 ar   
    26   12   77 1    
    27   13   14 ar   
    28   13   15 1    
    29   14   78 1    
    30   15   16 1    
    31   15   79 1    
    32   15   80 1    
    33   16   17 1    
    34   17   18 1    
    35   17   81 1    
    36   17   82 1    
    37   18   19 1    
    38   18   22 1    
    39   18   83 1    
    40   19   20 am   BACKBONE|DICT|INTERRES
    41   19   21 2    
    42   20   84 1    
    43   20   85 1    
    44   22   23 am   BACKBONE|DICT|INTERRES
    45   22   86 1    
    46   23   24 2    
    47   23   25 1    
    48   25   26 1    
    49   25   27 1    
    50   25   87 1    
    51   26   88 1    
    52   26   89 1    
    53   26   90 1    
    54   27   28 am   BACKBONE|DICT|INTERRES
    55   27   91 1    
    56   28   29 2    
    57   28   30 1    
    58   30   31 1    
    59   30   32 1    
    60   30   92 1    
    61   31   93 1    
    62   31   94 1    
    63   31   95 1    
    64   32   33 am   BACKBONE|DICT|INTERRES
    65   32   96 1    
    66   33   34 2    
    67   33   35 1    
    68   35   36 1    
    69   35   37 1    
    70   35   97 1    
    71   36   98 1    
    72   36   99 1    
    73   36  100 1    
    74   37   38 am   BACKBONE|DICT|INTERRES
    75   37  101 1    
    76   38   39 2    
    77   38   40 1    
    78   40   41 1    
    79   40   42 1    
    80   40  102 1    
    81   41  103 1    
    82   41  104 1    
    83   41  105 1    
    84   42   43 am   BACKBONE|DICT|INTERRES
    85   42  106 1    
    86   43   44 2    
    87   43   45 1    
    88   45   46 1    
    89   45   49 1    
    90   45  107 1    
    91   46   47 1    
    92   46  108 1    
    93   46  109 1    
    94   47   48 1    
    95   48  110 1    
    96   48  111 1    
    97   49   50 am   BACKBONE|DICT|INTERRES
    98   49  112 1    
    99   50   51 2    
   100   50   52 1    
   101   52   53 1    
   102   52   54 1    
   103   52  113 1    
   104   53  114 1    
   105   53  115 1    
   106   53  116 1    
   107   54   55 am   BACKBONE|DICT|INTERRES
   108   54  117 1    
   109   55   56 2    
   110   55   57 1    
   111   57   58 1    
   112   57   59 1    
   113   57  118 1    
   114   58  119 1    
   115   58  120 1    
   116   58  121 1    
   117   59   60 am   BACKBONE|DICT|INTERRES
   118   59  122 1    
   119   60   61 2    
   120   60   62 1    
   121   62   63 1    
   122   62   64 1    
   123   62  123 1    
   124   63  124 1    
   125   63  125 1    
   126   63  126 1    
   127   64   65 am   BACKBONE|DICT|INTERRES
   128   64  127 1    
   129   65   66 2    
@<TRIPOS>SUBSTRUCTURE
     1 UNK         1 GROUP             0       ****    0 ROOT    
