@<TRIPOS>MOLECULE
3R135
127   129    1
SMALL
USER_CHARGES


@<TRIPOS>ATOM
      1 CA        -78.7840   21.7436  -69.4896 C.3       0 UNK        -0.1998 
      2 C         -79.5837   22.8759  -70.1165 C.2       0 UNK         0.4909 
      3 O         -80.7683   23.0291  -69.8155 O.2       0 UNK        -0.5240 
      4 N         -78.9419   23.6756  -70.9770 N.am      1 UNK        -0.4739 
      5 CA        -79.5604   24.7809  -71.7179 C.3       1 UNK         0.0864 
      6 C6        -78.4970   25.7009  -72.3679 C.3       11 UNK        -0.0881 
      7 S7        -77.3536   26.4284  -71.1467 S.3       11 UNK        -0.2682 
      8 C8        -78.0600   28.0882  -70.9060 C.3       11 UNK         0.0289 
      9 C9        -77.8221   28.9894  -72.1086 C.ar      11 UNK        -0.0687 
     10 C10       -78.8659   29.2832  -72.9910 C.ar      11 UNK        -0.0823 
     11 C11       -78.6473   30.1155  -74.0919 C.ar      11 UNK        -0.0830 
     12 C12       -77.3800   30.6675  -74.2969 C.ar      11 UNK        -0.1021 
     13 C13       -76.3263   30.3831  -73.4243 C.ar      11 UNK        -0.0753 
     14 C14       -76.5561   29.5397  -72.3313 C.ar      11 UNK        -0.0933 
     15 C15       -74.9448   30.9658  -73.7030 C.3       11 UNK         0.0166 
     16 S16       -74.1660   31.6959  -72.2277 S.3       11 UNK        -0.2615 
     17 C17       -72.7803   32.6084  -72.9918 C.3       11 UNK        -0.0865 
     18 CA        -71.3675   32.0570  -72.6684 C.3       10 UNK         0.0862 
     19 C         -70.9630   32.2528  -71.1793 C.2       10 UNK         0.5551 
     20 N         -70.7339   33.4900  -70.7594 N.am      10 UNK        -0.7319 
     21 O         -70.8653   31.3059  -70.4000 O.2       10 UNK        -0.5018 
     22 N         -71.1878   30.6691  -73.1258 N.am      10 UNK        -0.4509 
     23 C         -70.0115   30.1707  -73.5274 C.2       10 UNK         0.4899 
     24 O         -69.0055   30.8636  -73.6904 O.2       10 UNK        -0.4839 
     25 CA        -69.8939   28.6553  -73.7772 C.3       9 UNK         0.0222 
     26 CB        -68.8761   28.0333  -72.8040 C.3       9 UNK        -0.1966 
     27 N         -71.1423   27.8918  -73.6892 N.am      9 UNK        -0.4218 
     28 C         -72.0724   27.8180  -74.6494 C.2       9 UNK         0.5020 
     29 O         -72.1044   28.5527  -75.6392 O.2       9 UNK        -0.5274 
     30 CA        -73.1384   26.7215  -74.4574 C.3       8 UNK         0.0270 
     31 CB        -74.3887   27.2705  -73.7554 C.3       8 UNK        -0.1976 
     32 N         -73.5473   26.0804  -75.7082 N.am      8 UNK        -0.4313 
     33 C         -72.7493   25.4293  -76.5656 C.2       8 UNK         0.5041 
     34 O         -71.5375   25.2788  -76.3998 O.2       8 UNK        -0.5577 
     35 CA        -73.4116   24.8073  -77.8067 C.3       7 UNK         0.0284 
     36 CB        -73.7434   23.3279  -77.5460 C.3       7 UNK        -0.1958 
     37 N         -74.6379   25.5060  -78.2023 N.am      7 UNK        -0.4454 
     38 C         -74.7083   26.4532  -79.1474 C.2       7 UNK         0.5089 
     39 O         -73.7340   26.8529  -79.7859 O.2       7 UNK        -0.5125 
     40 CA        -76.0984   27.0397  -79.4689 C.3       6 UNK         0.0408 
     41 CB        -76.6605   26.4012  -80.7493 C.3       6 UNK        -0.1791 
     42 N         -77.0790   26.8798  -78.3915 N.am      6 UNK        -0.4762 
     43 C         -77.0747   27.5845  -77.2499 C.2       6 UNK         0.5007 
     44 O         -76.2434   28.4557  -76.9948 O.2       6 UNK        -0.5032 
     45 CA        -78.1414   27.2049  -76.1923 C.3       5 UNK         0.0783 
     46 C46       -79.4981   27.9345  -76.4057 C.3       11 UNK        -0.0857 
     47 S47       -79.4345   29.7343  -76.7198 S.3       11 UNK        -0.2512 
     48 C48       -79.7743   30.4188  -75.0674 C.3       11 UNK         0.0225 
     49 N         -78.3614   25.7496  -76.1050 N.am      5 UNK        -0.4615 
     50 C         -77.4089   24.8179  -75.9346 C.2       4 UNK         0.5053 
     51 O         -76.2240   25.1010  -75.7744 O.2       4 UNK        -0.5105 
     52 CA        -77.7999   23.3284  -75.9832 C.3       4 UNK         0.0263 
     53 CB        -77.2825   22.5669  -74.7502 C.3       4 UNK        -0.1981 
     54 N         -79.2381   23.1009  -76.1382 N.am      4 UNK        -0.4224 
     55 C         -79.8901   23.1428  -77.3105 C.2       3 UNK         0.4895 
     56 O         -79.3334   23.3489  -78.3894 O.2       3 UNK        -0.5091 
     57 CA        -81.4204   22.9564  -77.2852 C.3       3 UNK         0.0250 
     58 CB        -81.7886   21.5036  -77.6264 C.3       3 UNK        -0.1996 
     59 N         -82.0503   23.3270  -76.0136 N.am      3 UNK        -0.4254 
     60 C         -82.0234   24.5522  -75.4711 C.2       2 UNK         0.5004 
     61 O         -81.4814   25.5182  -76.0073 O.2       2 UNK        -0.5226 
     62 CA        -82.6405   24.7292  -74.0704 C.3       2 UNK         0.0269 
     63 CB        -83.5319   23.5497  -73.6171 C.3       2 UNK        -0.1926 
     64 N         -81.6054   25.0079  -73.0639 N.am      2 UNK        -0.4687 
     65 C         -80.5342   24.2469  -72.7894 C.2       1 UNK         0.5165 
     66 O         -80.2812   23.1867  -73.3695 O.2       1 UNK        -0.5079 
     67 H67       -78.7780   21.8441  -68.4046 H         1 UNK         0.0900 
     68 H68       -79.2337   20.7835  -69.7412 H         1 UNK         0.0900 
     69 H69       -77.7504   21.7347  -69.8351 H         1 UNK         0.0900 
     70 H70       -77.9684   23.5060  -71.1833 H         1 UNK         0.2959 
     71 H71       -80.1383   25.3724  -71.0041 H         1 UNK         0.1079 
     72 H72       -77.8911   25.1417  -73.0801 H         1 UNK         0.0837 
     73 H73       -78.9708   26.4955  -72.9449 H         1 UNK         0.0837 
     74 H74       -79.1250   28.0023  -70.6846 H         1 UNK         0.0685 
     75 H75       -77.6017   28.5391  -70.0246 H         1 UNK         0.0685 
     76 H76       -79.8469   28.8604  -72.8232 H         1 UNK         0.1434 
     77 H77       -77.2127   31.3041  -75.1552 H         1 UNK         0.1329 
     78 H78       -75.7476   29.3057  -71.6526 H         1 UNK         0.1335 
     79 H79       -74.2938   30.1911  -74.1074 H         1 UNK         0.0680 
     80 H80       -75.0207   31.7358  -74.4723 H         1 UNK         0.0680 
     81 H81       -72.9083   32.6295  -74.0748 H         1 UNK         0.1032 
     82 H82       -72.8578   33.6522  -72.6826 H         1 UNK         0.1032 
     83 H83       -70.6763   32.6795  -73.2406 H         1 UNK         0.0461 
     84 H84       -70.8044   34.2772  -71.3851 H         1 UNK         0.3453 
     85 H85       -70.4762   33.6392  -69.7962 H         1 UNK         0.3453 
     86 H86       -71.9619   30.0414  -72.9710 H         1 UNK         0.2984 
     87 H87       -69.5006   28.5358  -74.7891 H         1 UNK         0.0554 
     88 H88       -67.9057   28.5261  -72.8798 H         1 UNK         0.0847 
     89 H89       -68.7130   26.9769  -73.0182 H         1 UNK         0.0847 
     90 H90       -69.2037   28.1215  -71.7672 H         1 UNK         0.0847 
     91 H91       -71.2270   27.2751  -72.8934 H         1 UNK         0.3141 
     92 H92       -72.7112   25.9385  -73.8276 H         1 UNK         0.0743 
     93 H93       -74.9420   27.9513  -74.4029 H         1 UNK         0.0784 
     94 H94       -75.0683   26.4666  -73.4708 H         1 UNK         0.0784 
     95 H95       -74.1287   27.8106  -72.8445 H         1 UNK         0.0784 
     96 H96       -74.5452   26.0634  -75.8914 H         1 UNK         0.3213 
     97 H97       -72.6850   24.8489  -78.6212 H         1 UNK         0.0855 
     98 H98       -74.4498   23.2084  -76.7238 H         1 UNK         0.0814 
     99 H99       -72.8442   22.7680  -77.2851 H         1 UNK         0.0814 
    100 H100      -74.1730   22.8557  -78.4296 H         1 UNK         0.0814 
    101 H101      -75.4720   25.2866  -77.6719 H         1 UNK         0.3105 
    102 H102      -75.9663   28.1079  -79.6542 H         1 UNK         0.0547 
    103 H103      -75.9693   26.5260  -81.5841 H         1 UNK         0.0837 
    104 H104      -76.8317   25.3310  -80.6261 H         1 UNK         0.0837 
    105 H105      -77.6040   26.8618  -81.0423 H         1 UNK         0.0837 
    106 H106      -77.7890   26.1718  -78.5187 H         1 UNK         0.3020 
    107 H107      -77.7362   27.5218  -75.2285 H         1 UNK         0.1245 
    108 H108      -80.1444   27.7568  -75.5451 H         1 UNK         0.0781 
    109 H109      -80.0182   27.4921  -77.2572 H         1 UNK         0.0781 
    110 H110      -80.7287   30.0348  -74.7037 H         1 UNK         0.0836 
    111 H111      -79.8917   31.5002  -75.1505 H         1 UNK         0.0836 
    112 H112      -79.3223   25.4458  -76.2135 H         1 UNK         0.3022 
    113 H113      -77.2899   22.9092  -76.8532 H         1 UNK         0.0747 
    114 H114      -77.5023   21.5018  -74.8241 H         1 UNK         0.0793 
    115 H115      -76.2003   22.6646  -74.6532 H         1 UNK         0.0793 
    116 H116      -77.7235   22.9327  -73.8249 H         1 UNK         0.0793 
    117 H117      -79.7667   22.9629  -75.2806 H         1 UNK         0.3047 
    118 H118      -81.8359   23.6060  -78.0585 H         1 UNK         0.0822 
    119 H119      -82.8683   21.3751  -77.7067 H         1 UNK         0.0807 
    120 H120      -81.4210   20.8061  -76.8725 H         1 UNK         0.0807 
    121 H121      -81.3574   21.2059  -78.5835 H         1 UNK         0.0807 
    122 H122      -82.4842   22.5827  -75.4869 H         1 UNK         0.2946 
    123 H123      -83.2726   25.6170  -74.1324 H         1 UNK         0.1144 
    124 H124      -84.0172   23.7745  -72.6672 H         1 UNK         0.0793 
    125 H125      -82.9674   22.6264  -73.4817 H         1 UNK         0.0793 
    126 H126      -84.3259   23.3538  -74.3392 H         1 UNK         0.0793 
    127 H127      -81.7167   25.8795  -72.5645 H         1 UNK         0.2896 
@<TRIPOS>BOND
     1    1    2 1    
     2    1   67 1    
     3    1   68 1    
     4    1   69 1    
     5    2    3 2    
     6    2    4 am   BACKBONE|DICT|INTERRES
     7    4    5 1    
     8    4   70 1    
     9    5    6 1    
    10    5   65 1    
    11    5   71 1    
    12    6    7 1    
    13    6   72 1    
    14    6   73 1    
    15    7    8 1    
    16    8    9 1    
    17    8   74 1    
    18    8   75 1    
    19    9   10 ar   
    20    9   14 ar   
    21   10   11 ar   
    22   10   76 1    
    23   11   12 ar   
    24   11   48 1    
    25   12   13 ar   
    26   12   77 1    
    27   13   14 ar   
    28   13   15 1    
    29   14   78 1    
    30   15   16 1    
    31   15   79 1    
    32   15   80 1    
    33   16   17 1    
    34   17   18 1    
    35   17   81 1    
    36   17   82 1    
    37   18   19 1    
    38   18   22 1    
    39   18   83 1    
    40   19   20 am   BACKBONE|DICT|INTERRES
    41   19   21 2    
    42   20   84 1    
    43   20   85 1    
    44   22   23 am   BACKBONE|DICT|INTERRES
    45   22   86 1    
    46   23   24 2    
    47   23   25 1    
    48   25   26 1    
    49   25   27 1    
    50   25   87 1    
    51   26   88 1    
    52   26   89 1    
    53   26   90 1    
    54   27   28 am   BACKBONE|DICT|INTERRES
    55   27   91 1    
    56   28   29 2    
    57   28   30 1    
    58   30   31 1    
    59   30   32 1    
    60   30   92 1    
    61   31   93 1    
    62   31   94 1    
    63   31   95 1    
    64   32   33 am   BACKBONE|DICT|INTERRES
    65   32   96 1    
    66   33   34 2    
    67   33   35 1    
    68   35   36 1    
    69   35   37 1    
    70   35   97 1    
    71   36   98 1    
    72   36   99 1    
    73   36  100 1    
    74   37   38 am   BACKBONE|DICT|INTERRES
    75   37  101 1    
    76   38   39 2    
    77   38   40 1    
    78   40   41 1    
    79   40   42 1    
    80   40  102 1    
    81   41  103 1    
    82   41  104 1    
    83   41  105 1    
    84   42   43 am   BACKBONE|DICT|INTERRES
    85   42  106 1    
    86   43   44 2    
    87   43   45 1    
    88   45   46 1    
    89   45   49 1    
    90   45  107 1    
    91   46   47 1    
    92   46  108 1    
    93   46  109 1    
    94   47   48 1    
    95   48  110 1    
    96   48  111 1    
    97   49   50 am   BACKBONE|DICT|INTERRES
    98   49  112 1    
    99   50   51 2    
   100   50   52 1    
   101   52   53 1    
   102   52   54 1    
   103   52  113 1    
   104   53  114 1    
   105   53  115 1    
   106   53  116 1    
   107   54   55 am   BACKBONE|DICT|INTERRES
   108   54  117 1    
   109   55   56 2    
   110   55   57 1    
   111   57   58 1    
   112   57   59 1    
   113   57  118 1    
   114   58  119 1    
   115   58  120 1    
   116   58  121 1    
   117   59   60 am   BACKBONE|DICT|INTERRES
   118   59  122 1    
   119   60   61 2    
   120   60   62 1    
   121   62   63 1    
   122   62   64 1    
   123   62  123 1    
   124   63  124 1    
   125   63  125 1    
   126   63  126 1    
   127   64   65 am   BACKBONE|DICT|INTERRES
   128   64  127 1    
   129   65   66 2    
@<TRIPOS>SUBSTRUCTURE
     1 UNK         1 GROUP             0       ****    0 ROOT    
