@<TRIPOS>MOLECULE
3R135
127   129    1
SMALL
USER_CHARGES


@<TRIPOS>ATOM
      1 CA        -80.4789   30.1657  -71.5925 C.3       0 UNK        -0.1998 
      2 C         -81.5295   29.5997  -72.5343 C.2       0 UNK         0.4909 
      3 O         -82.7251   29.6927  -72.2540 O.2       0 UNK        -0.5240 
      4 N         -81.0882   29.0125  -73.6543 N.am      1 UNK        -0.4739 
      5 CA        -81.9533   28.4399  -74.6986 C.3       1 UNK         0.0864 
      6 C6        -81.2176   28.2478  -76.0531 C.3       11 UNK        -0.0881 
      7 S7        -80.2235   29.6924  -76.5710 S.3       11 UNK        -0.2682 
      8 C8        -78.5232   29.0420  -76.4556 C.3       11 UNK         0.0289 
      9 C9        -78.1246   28.7277  -75.0198 C.ar      11 UNK        -0.0687 
     10 C10       -78.2274   27.4222  -74.5271 C.ar      11 UNK        -0.0823 
     11 C11       -77.8837   27.1330  -73.2030 C.ar      11 UNK        -0.0830 
     12 C12       -77.4311   28.1590  -72.3726 C.ar      11 UNK        -0.1021 
     13 C13       -77.2704   29.4554  -72.8680 C.ar      11 UNK        -0.0753 
     14 C14       -77.6339   29.7393  -74.1879 C.ar      11 UNK        -0.0933 
     15 C15       -76.6699   30.5350  -71.9799 C.3       11 UNK         0.0166 
     16 S16       -74.8777   30.7177  -72.2616 S.3       11 UNK        -0.2615 
     17 C17       -74.2780   29.0155  -71.9621 C.3       11 UNK        -0.0865 
     18 CA        -72.7399   28.9187  -71.7336 C.3       10 UNK         0.0862 
     19 C         -72.2234   27.4763  -71.4296 C.2       10 UNK         0.5551 
     20 N         -73.0783   26.5465  -71.0144 N.am      10 UNK        -0.7319 
     21 O         -71.0237   27.2029  -71.5199 O.2       10 UNK        -0.5018 
     22 N         -71.9589   29.5767  -72.7943 N.am      10 UNK        -0.4509 
     23 C         -71.9058   29.1939  -74.0748 C.2       10 UNK         0.4899 
     24 O         -72.5345   28.2412  -74.5475 O.2       10 UNK        -0.4839 
     25 CA        -70.9787   30.0133  -74.9804 C.3       9 UNK         0.0222 
     26 CB        -69.5209   29.5367  -74.8645 C.3       9 UNK        -0.1966 
     27 N         -71.4417   29.8484  -76.3496 N.am      9 UNK        -0.4218 
     28 C         -71.4062   30.7597  -77.3280 C.2       9 UNK         0.5020 
     29 O         -70.8568   31.8573  -77.2258 O.2       9 UNK        -0.5274 
     30 CA        -72.1099   30.3855  -78.6481 C.3       8 UNK         0.0270 
     31 CB        -71.0763   29.9970  -79.7168 C.3       8 UNK        -0.1976 
     32 N         -73.0624   29.2834  -78.4833 N.am      8 UNK        -0.4313 
     33 C         -74.2361   29.3640  -77.8460 C.2       8 UNK         0.5041 
     34 O         -74.7390   30.4247  -77.4775 O.2       8 UNK        -0.5577 
     35 CA        -74.9395   28.0392  -77.5049 C.3       7 UNK         0.0284 
     36 CB        -75.8180   27.5501  -78.6720 C.3       7 UNK        -0.1958 
     37 N         -74.0389   26.9806  -77.0177 N.am      7 UNK        -0.4454 
     38 C         -73.0906   26.2915  -77.6729 C.2       7 UNK         0.5089 
     39 O         -72.7742   26.5080  -78.8428 O.2       7 UNK        -0.5125 
     40 CA        -72.3457   25.1927  -76.8867 C.3       6 UNK         0.0408 
     41 CB        -70.9420   25.6737  -76.4827 C.3       6 UNK        -0.1791 
     42 N         -73.0696   24.7368  -75.6932 N.am      6 UNK        -0.4762 
     43 C         -74.1988   24.0140  -75.7318 C.2       6 UNK         0.5007 
     44 O         -74.6910   23.5826  -76.7790 O.2       6 UNK        -0.5032 
     45 CA        -74.9290   23.7986  -74.3921 C.3       5 UNK         0.0783 
     46 C46       -75.4464   25.1607  -73.8600 C.3       11 UNK        -0.0857 
     47 S47       -76.3094   25.0479  -72.2570 S.3       11 UNK        -0.2512 
     48 C48       -77.9573   25.7063  -72.6770 C.3       11 UNK         0.0225 
     49 N         -76.0157   22.8427  -74.6208 N.am      5 UNK        -0.4615 
     50 C         -76.2226   21.7064  -73.9462 C.2       4 UNK         0.5053 
     51 O         -75.5509   21.3547  -72.9746 O.2       4 UNK        -0.5105 
     52 CA        -77.3566   20.7993  -74.4749 C.3       4 UNK         0.0263 
     53 CB        -77.8090   19.7334  -73.4521 C.3       4 UNK        -0.1981 
     54 N         -78.5030   21.5538  -75.0071 N.am      4 UNK        -0.4224 
     55 C         -79.3233   22.3646  -74.3208 C.2       3 UNK         0.4895 
     56 O         -79.2542   22.5400  -73.1026 O.2       3 UNK        -0.5091 
     57 CA        -80.3546   23.1413  -75.1666 C.3       3 UNK         0.0250 
     58 CB        -81.3078   22.2011  -75.9382 C.3       3 UNK        -0.1996 
     59 N         -81.0964   24.1438  -74.3866 N.am      3 UNK        -0.4254 
     60 C         -82.0324   23.9465  -73.4436 C.2       2 UNK         0.5004 
     61 O         -82.5107   22.8480  -73.1548 O.2       2 UNK        -0.5226 
     62 CA        -82.5178   25.1892  -72.6711 C.3       2 UNK         0.0269 
     63 CB        -82.0712   25.1146  -71.2003 C.3       2 UNK        -0.1926 
     64 N         -82.0452   26.4589  -73.2346 N.am      2 UNK        -0.4687 
     65 C         -82.6107   27.1101  -74.2623 C.2       1 UNK         0.5165 
     66 O         -83.5972   26.6922  -74.8697 O.2       1 UNK        -0.5079 
     67 H67       -79.9067   29.3602  -71.1313 H         1 UNK         0.0900 
     68 H68       -80.9446   30.7504  -70.7979 H         1 UNK         0.0900 
     69 H69       -79.7931   30.8191  -72.1322 H         1 UNK         0.0900 
     70 H70       -80.0950   28.9915  -73.8504 H         1 UNK         0.2959 
     71 H71       -82.7682   29.1481  -74.8666 H         1 UNK         0.1079 
     72 H72       -81.9496   28.0586  -76.8408 H         1 UNK         0.0837 
     73 H73       -80.5843   27.3612  -76.0359 H         1 UNK         0.0837 
     74 H74       -78.4315   28.1544  -77.0833 H         1 UNK         0.0685 
     75 H75       -77.8351   29.7796  -76.8724 H         1 UNK         0.0685 
     76 H76       -78.5642   26.6279  -75.1784 H         1 UNK         0.1434 
     77 H77       -77.1539   27.9329  -71.3521 H         1 UNK         0.1329 
     78 H78       -77.5194   30.7439  -74.5724 H         1 UNK         0.1335 
     79 H79       -77.1589   31.4902  -72.1754 H         1 UNK         0.0680 
     80 H80       -76.8494   30.3092  -70.9276 H         1 UNK         0.0680 
     81 H81       -74.5769   28.3907  -72.8060 H         1 UNK         0.1032 
     82 H82       -74.8059   28.6330  -71.0880 H         1 UNK         0.1032 
     83 H83       -72.5191   29.4837  -70.8272 H         1 UNK         0.0461 
     84 H84       -72.7222   25.6289  -70.7987 H         1 UNK         0.3453 
     85 H85       -74.0667   26.7323  -70.9188 H         1 UNK         0.3453 
     86 H86       -71.3871   30.3523  -72.4943 H         1 UNK         0.2984 
     87 H87       -71.0503   31.0644  -74.6934 H         1 UNK         0.0554 
     88 H88       -68.8632   30.1132  -75.5153 H         1 UNK         0.0847 
     89 H89       -69.4180   28.4845  -75.1321 H         1 UNK         0.0847 
     90 H90       -69.1502   29.6515  -73.8453 H         1 UNK         0.0847 
     91 H91       -71.9767   29.0024  -76.4951 H         1 UNK         0.3141 
     92 H92       -72.6553   31.2651  -78.9948 H         1 UNK         0.0743 
     93 H93       -70.3688   30.8088  -79.8904 H         1 UNK         0.0784 
     94 H94       -70.5003   29.1205  -79.4205 H         1 UNK         0.0784 
     95 H95       -71.5553   29.7771  -80.6699 H         1 UNK         0.0784 
     96 H96       -72.7614   28.3550  -78.7749 H         1 UNK         0.3213 
     97 H97       -75.6033   28.2555  -76.6662 H         1 UNK         0.0855 
     98 H98       -76.5405   28.3145  -78.9611 H         1 UNK         0.0814 
     99 H99       -76.3809   26.6585  -78.3959 H         1 UNK         0.0814 
    100 H100      -75.2286   27.3134  -79.5581 H         1 UNK         0.0814 
    101 H101      -74.1241   26.7806  -76.0311 H         1 UNK         0.3105 
    102 H102      -72.2270   24.3406  -77.5596 H         1 UNK         0.0547 
    103 H103      -70.3785   26.0128  -77.3532 H         1 UNK         0.0837 
    104 H104      -70.9812   26.5037  -75.7781 H         1 UNK         0.0837 
    105 H105      -70.3662   24.8712  -76.0215 H         1 UNK         0.0837 
    106 H106      -72.7169   25.0610  -74.8029 H         1 UNK         0.3020 
    107 H107      -74.2059   23.3851  -73.6848 H         1 UNK         0.1245 
    108 H108      -76.1017   25.6209  -74.6006 H         1 UNK         0.0781 
    109 H109      -74.6212   25.8613  -73.7160 H         1 UNK         0.0781 
    110 H110      -78.5900   25.6766  -71.7890 H         1 UNK         0.0836 
    111 H111      -78.4217   25.0488  -73.4102 H         1 UNK         0.0836 
    112 H112      -76.5481   23.0074  -75.4630 H         1 UNK         0.3022 
    113 H113      -76.9307   20.2653  -75.3257 H         1 UNK         0.0747 
    114 H114      -78.6021   19.1050  -73.8576 H         1 UNK         0.0793 
    115 H115      -76.9819   19.0755  -73.1823 H         1 UNK         0.0793 
    116 H116      -78.1759   20.1843  -72.5296 H         1 UNK         0.0793 
    117 H117      -78.6395   21.4780  -76.0061 H         1 UNK         0.3047 
    118 H118      -79.7850   23.7117  -75.9027 H         1 UNK         0.0822 
    119 H119      -82.0775   22.7636  -76.4673 H         1 UNK         0.0807 
    120 H120      -81.8071   21.4924  -75.2760 H         1 UNK         0.0807 
    121 H121      -80.7709   21.6165  -76.6858 H         1 UNK         0.0807 
    122 H122      -80.7923   25.0972  -74.5119 H         1 UNK         0.2946 
    123 H123      -83.6102   25.1767  -72.6983 H         1 UNK         0.1144 
    124 H124      -82.4463   25.9627  -70.6270 H         1 UNK         0.0793 
    125 H125      -80.9846   25.0987  -71.1085 H         1 UNK         0.0793 
    126 H126      -82.4501   24.2099  -70.7220 H         1 UNK         0.0793 
    127 H127      -81.2504   26.8912  -72.7857 H         1 UNK         0.2896 
@<TRIPOS>BOND
     1    1    2 1    
     2    1   67 1    
     3    1   68 1    
     4    1   69 1    
     5    2    3 2    
     6    2    4 am   BACKBONE|DICT|INTERRES
     7    4    5 1    
     8    4   70 1    
     9    5    6 1    
    10    5   65 1    
    11    5   71 1    
    12    6    7 1    
    13    6   72 1    
    14    6   73 1    
    15    7    8 1    
    16    8    9 1    
    17    8   74 1    
    18    8   75 1    
    19    9   10 ar   
    20    9   14 ar   
    21   10   11 ar   
    22   10   76 1    
    23   11   12 ar   
    24   11   48 1    
    25   12   13 ar   
    26   12   77 1    
    27   13   14 ar   
    28   13   15 1    
    29   14   78 1    
    30   15   16 1    
    31   15   79 1    
    32   15   80 1    
    33   16   17 1    
    34   17   18 1    
    35   17   81 1    
    36   17   82 1    
    37   18   19 1    
    38   18   22 1    
    39   18   83 1    
    40   19   20 am   BACKBONE|DICT|INTERRES
    41   19   21 2    
    42   20   84 1    
    43   20   85 1    
    44   22   23 am   BACKBONE|DICT|INTERRES
    45   22   86 1    
    46   23   24 2    
    47   23   25 1    
    48   25   26 1    
    49   25   27 1    
    50   25   87 1    
    51   26   88 1    
    52   26   89 1    
    53   26   90 1    
    54   27   28 am   BACKBONE|DICT|INTERRES
    55   27   91 1    
    56   28   29 2    
    57   28   30 1    
    58   30   31 1    
    59   30   32 1    
    60   30   92 1    
    61   31   93 1    
    62   31   94 1    
    63   31   95 1    
    64   32   33 am   BACKBONE|DICT|INTERRES
    65   32   96 1    
    66   33   34 2    
    67   33   35 1    
    68   35   36 1    
    69   35   37 1    
    70   35   97 1    
    71   36   98 1    
    72   36   99 1    
    73   36  100 1    
    74   37   38 am   BACKBONE|DICT|INTERRES
    75   37  101 1    
    76   38   39 2    
    77   38   40 1    
    78   40   41 1    
    79   40   42 1    
    80   40  102 1    
    81   41  103 1    
    82   41  104 1    
    83   41  105 1    
    84   42   43 am   BACKBONE|DICT|INTERRES
    85   42  106 1    
    86   43   44 2    
    87   43   45 1    
    88   45   46 1    
    89   45   49 1    
    90   45  107 1    
    91   46   47 1    
    92   46  108 1    
    93   46  109 1    
    94   47   48 1    
    95   48  110 1    
    96   48  111 1    
    97   49   50 am   BACKBONE|DICT|INTERRES
    98   49  112 1    
    99   50   51 2    
   100   50   52 1    
   101   52   53 1    
   102   52   54 1    
   103   52  113 1    
   104   53  114 1    
   105   53  115 1    
   106   53  116 1    
   107   54   55 am   BACKBONE|DICT|INTERRES
   108   54  117 1    
   109   55   56 2    
   110   55   57 1    
   111   57   58 1    
   112   57   59 1    
   113   57  118 1    
   114   58  119 1    
   115   58  120 1    
   116   58  121 1    
   117   59   60 am   BACKBONE|DICT|INTERRES
   118   59  122 1    
   119   60   61 2    
   120   60   62 1    
   121   62   63 1    
   122   62   64 1    
   123   62  123 1    
   124   63  124 1    
   125   63  125 1    
   126   63  126 1    
   127   64   65 am   BACKBONE|DICT|INTERRES
   128   64  127 1    
   129   65   66 2    
@<TRIPOS>SUBSTRUCTURE
     1 UNK         1 GROUP             0       ****    0 ROOT    
