@<TRIPOS>MOLECULE
3R135
127   129    1
SMALL
USER_CHARGES


@<TRIPOS>ATOM
      1 CA        -81.6587   29.3553  -77.1507 C.3       0 UNK        -0.1998 
      2 C         -82.6000   29.3051  -75.9495 C.2       0 UNK         0.4909 
      3 O         -83.7554   29.7065  -76.0745 O.2       0 UNK        -0.5240 
      4 N         -82.1656   28.8409  -74.7684 N.am      1 UNK        -0.4739 
      5 CA        -80.8423   28.2781  -74.4569 C.3       1 UNK         0.0864 
      6 C6        -80.6284   28.1304  -72.9287 C.3       11 UNK        -0.0881 
      7 S7        -80.8324   29.7129  -72.0358 S.3       11 UNK        -0.2682 
      8 C8        -80.2169   29.3023  -70.3673 C.3       11 UNK         0.0289 
      9 C9        -78.7505   28.8997  -70.3934 C.ar      11 UNK        -0.0687 
     10 C10       -78.3805   27.5715  -70.1588 C.ar      11 UNK        -0.0823 
     11 C11       -77.0486   27.1738  -70.3070 C.ar      11 UNK        -0.0830 
     12 C12       -76.0803   28.1245  -70.6403 C.ar      11 UNK        -0.1021 
     13 C13       -76.4387   29.4517  -70.8815 C.ar      11 UNK        -0.0753 
     14 C14       -77.7727   29.8402  -70.7330 C.ar      11 UNK        -0.0933 
     15 C15       -75.4027   30.4367  -71.3989 C.3       11 UNK         0.0166 
     16 S16       -75.6148   30.6617  -73.1921 S.3       11 UNK        -0.2615 
     17 C17       -74.0645   31.4946  -73.6717 C.3       11 UNK        -0.0865 
     18 CA        -73.2780   30.6711  -74.7335 C.3       10 UNK         0.0862 
     19 C         -72.1508   31.4885  -75.4379 C.2       10 UNK         0.5551 
     20 N         -71.0966   30.8551  -75.9381 N.am      10 UNK        -0.7319 
     21 O         -72.2402   32.7081  -75.5601 O.2       10 UNK        -0.5018 
     22 N         -72.8643   29.3435  -74.2398 N.am      10 UNK        -0.4509 
     23 C         -71.9434   29.1069  -73.2953 C.2       10 UNK         0.4899 
     24 O         -71.3356   29.9920  -72.6928 O.2       10 UNK        -0.4839 
     25 CA        -71.6213   27.6415  -72.9679 C.3       9 UNK         0.0222 
     26 CB        -72.4574   27.1519  -71.7764 C.3       9 UNK        -0.1966 
     27 N         -71.8545   26.7439  -74.1025 N.am      9 UNK        -0.4218 
     28 C         -70.9148   25.9878  -74.6829 C.2       9 UNK         0.5020 
     29 O         -69.7198   26.0210  -74.3837 O.2       9 UNK        -0.5274 
     30 CA        -71.3820   24.9930  -75.7559 C.3       8 UNK         0.0270 
     31 CB        -71.8675   23.6902  -75.0982 C.3       8 UNK        -0.1976 
     32 N         -72.4354   25.5089  -76.6305 N.am      8 UNK        -0.4313 
     33 C         -72.2405   26.3989  -77.6126 C.2       8 UNK         0.5041 
     34 O         -71.1694   26.9707  -77.8184 O.2       8 UNK        -0.5577 
     35 CA        -73.4337   26.6773  -78.5384 C.3       7 UNK         0.0284 
     36 CB        -73.7078   25.4732  -79.4566 C.3       7 UNK        -0.1958 
     37 N         -74.6363   26.9889  -77.7685 N.am      7 UNK        -0.4454 
     38 C         -75.0352   28.2296  -77.4600 C.2       7 UNK         0.5089 
     39 O         -74.4714   29.2476  -77.8612 O.2       7 UNK        -0.5125 
     40 CA        -76.2703   28.3756  -76.5480 C.3       6 UNK         0.0408 
     41 CB        -77.5068   28.7527  -77.3783 C.3       6 UNK        -0.1791 
     42 N         -76.5808   27.1972  -75.7310 N.am      6 UNK        -0.4762 
     43 C         -75.7653   26.6688  -74.8067 C.2       6 UNK         0.5007 
     44 O         -74.6325   27.0905  -74.5701 O.2       6 UNK        -0.5032 
     45 CA        -76.2730   25.4124  -74.0721 C.3       5 UNK         0.0783 
     46 C46       -77.3747   25.7957  -73.0568 C.3       11 UNK        -0.0857 
     47 S47       -77.4283   24.7070  -71.5877 S.3       11 UNK        -0.2512 
     48 C48       -76.6686   25.6999  -70.2456 C.3       11 UNK         0.0225 
     49 N         -76.7295   24.3662  -74.9981 N.am      5 UNK        -0.4615 
     50 C         -76.0301   23.8637  -76.0264 C.2       4 UNK         0.5053 
     51 O         -74.9020   24.2534  -76.3287 O.2       4 UNK        -0.5105 
     52 CA        -76.6865   22.7919  -76.9162 C.3       4 UNK         0.0263 
     53 CB        -75.7621   21.5707  -77.1049 C.3       4 UNK        -0.1981 
     54 N         -78.0418   22.3836  -76.5223 N.am      4 UNK        -0.4224 
     55 C         -78.4253   21.6888  -75.4400 C.2       3 UNK         0.4895 
     56 O         -77.6589   21.3015  -74.5574 O.2       3 UNK        -0.5091 
     57 CA        -79.9353   21.3927  -75.3468 C.3       3 UNK         0.0250 
     58 CB        -80.3677   20.8489  -73.9671 C.3       3 UNK        -0.1996 
     59 N         -80.7569   22.5423  -75.7579 N.am      3 UNK        -0.4254 
     60 C         -80.8418   23.7337  -75.1455 C.2       2 UNK         0.5004 
     61 O         -80.2713   24.0038  -74.0875 O.2       2 UNK        -0.5226 
     62 CA        -81.7254   24.7852  -75.8474 C.3       2 UNK         0.0269 
     63 CB        -83.1964   24.3313  -75.8904 C.3       2 UNK        -0.1926 
     64 N         -81.6769   26.1082  -75.2190 N.am      2 UNK        -0.4687 
     65 C         -80.6157   26.9260  -75.1676 C.2       1 UNK         0.5165 
     66 O         -79.5252   26.6797  -75.6870 O.2       1 UNK        -0.5079 
     67 H67       -80.7083   29.8200  -76.8933 H         1 UNK         0.0900 
     68 H68       -82.1007   29.9458  -77.9530 H         1 UNK         0.0900 
     69 H69       -81.4720   28.3559  -77.5421 H         1 UNK         0.0900 
     70 H70       -82.8040   28.8697  -73.9862 H         1 UNK         0.2959 
     71 H71       -80.0819   28.9691  -74.8252 H         1 UNK         0.1079 
     72 H72       -79.6247   27.7509  -72.7351 H         1 UNK         0.0837 
     73 H73       -81.3205   27.4011  -72.5030 H         1 UNK         0.0837 
     74 H74       -80.3402   30.1709  -69.7189 H         1 UNK         0.0685 
     75 H75       -80.8341   28.5091  -69.9423 H         1 UNK         0.0685 
     76 H76       -79.1360   26.8306  -69.9347 H         1 UNK         0.1434 
     77 H77       -75.0552   27.8199  -70.7761 H         1 UNK         0.1329 
     78 H78       -78.0611   30.8599  -70.9494 H         1 UNK         0.1335 
     79 H79       -75.5067   31.3969  -70.8916 H         1 UNK         0.0680 
     80 H80       -74.3941   30.0747  -71.1919 H         1 UNK         0.0680 
     81 H81       -73.4454   31.6929  -72.7957 H         1 UNK         0.1032 
     82 H82       -74.3426   32.4723  -74.0689 H         1 UNK         0.1032 
     83 H83       -73.9783   30.4636  -75.5409 H         1 UNK         0.0461 
     84 H84       -71.0231   29.8531  -75.8635 H         1 UNK         0.3453 
     85 H85       -70.3747   31.3838  -76.4013 H         1 UNK         0.3453 
     86 H86       -73.3845   28.5575  -74.6137 H         1 UNK         0.2984 
     87 H87       -70.5717   27.6165  -72.6684 H         1 UNK         0.0554 
     88 H88       -72.0835   26.1995  -71.4006 H         1 UNK         0.0847 
     89 H89       -73.4980   27.0069  -72.0624 H         1 UNK         0.0847 
     90 H90       -72.4298   27.8619  -70.9484 H         1 UNK         0.0847 
     91 H91       -72.8169   26.6668  -74.4225 H         1 UNK         0.3141 
     92 H92       -70.5175   24.7518  -76.3784 H         1 UNK         0.0743 
     93 H93       -72.7460   23.8565  -74.4731 H         1 UNK         0.0784 
     94 H94       -72.1288   22.9417  -75.8466 H         1 UNK         0.0784 
     95 H95       -71.0916   23.2585  -74.4644 H         1 UNK         0.0784 
     96 H96       -73.3540   25.0755  -76.5326 H         1 UNK         0.3213 
     97 H97       -73.1702   27.5244  -79.1759 H         1 UNK         0.0855 
     98 H98       -73.9893   24.5818  -78.8948 H         1 UNK         0.0814 
     99 H99       -72.8227   25.2222  -80.0426 H         1 UNK         0.0814 
    100 H100      -74.5107   25.6900  -80.1613 H         1 UNK         0.0814 
    101 H101      -75.1273   26.2094  -77.3504 H         1 UNK         0.3105 
    102 H102      -76.0639   29.1983  -75.8616 H         1 UNK         0.0547 
    103 H103      -77.3103   29.6247  -78.0038 H         1 UNK         0.0837 
    104 H104      -77.8147   27.9394  -78.0364 H         1 UNK         0.0837 
    105 H105      -78.3499   29.0032  -76.7361 H         1 UNK         0.0837 
    106 H106      -77.5104   26.8011  -75.8413 H         1 UNK         0.3020 
    107 H107      -75.4150   25.0107  -73.5287 H         1 UNK         0.1245 
    108 H108      -78.3544   25.7419  -73.5292 H         1 UNK         0.0781 
    109 H109      -77.2871   26.8376  -72.7565 H         1 UNK         0.0781 
    110 H110      -75.5854   25.5803  -70.2989 H         1 UNK         0.0836 
    111 H111      -76.9726   25.2878  -69.2824 H         1 UNK         0.0836 
    112 H112      -77.6467   23.9850  -74.8117 H         1 UNK         0.3022 
    113 H113      -76.7993   23.2620  -77.8942 H         1 UNK         0.0747 
    114 H114      -76.2090   20.8325  -77.7707 H         1 UNK         0.0793 
    115 H115      -74.8086   21.8656  -77.5453 H         1 UNK         0.0793 
    116 H116      -75.5390   21.0789  -76.1577 H         1 UNK         0.0793 
    117 H117      -78.7701   22.6649  -77.1640 H         1 UNK         0.3047 
    118 H118      -80.1288   20.6050  -76.0767 H         1 UNK         0.0822 
    119 H119      -81.4388   20.6501  -73.9361 H         1 UNK         0.0807 
    120 H120      -80.1314   21.5444  -73.1612 H         1 UNK         0.0807 
    121 H121      -79.8579   19.9114  -73.7418 H         1 UNK         0.0807 
    122 H122      -81.2820   22.4109  -76.6120 H         1 UNK         0.2946 
    123 H123      -81.3575   24.8925  -76.8704 H         1 UNK         0.1144 
    124 H124      -83.3122   23.3884  -76.4258 H         1 UNK         0.0793 
    125 H125      -83.8224   25.0631  -76.4018 H         1 UNK         0.0793 
    126 H126      -83.6013   24.1874  -74.8877 H         1 UNK         0.0793 
    127 H127      -82.5227   26.4132  -74.7601 H         1 UNK         0.2896 
@<TRIPOS>BOND
     1    1    2 1    
     2    1   67 1    
     3    1   68 1    
     4    1   69 1    
     5    2    3 2    
     6    2    4 am   BACKBONE|DICT|INTERRES
     7    4    5 1    
     8    4   70 1    
     9    5    6 1    
    10    5   65 1    
    11    5   71 1    
    12    6    7 1    
    13    6   72 1    
    14    6   73 1    
    15    7    8 1    
    16    8    9 1    
    17    8   74 1    
    18    8   75 1    
    19    9   10 ar   
    20    9   14 ar   
    21   10   11 ar   
    22   10   76 1    
    23   11   12 ar   
    24   11   48 1    
    25   12   13 ar   
    26   12   77 1    
    27   13   14 ar   
    28   13   15 1    
    29   14   78 1    
    30   15   16 1    
    31   15   79 1    
    32   15   80 1    
    33   16   17 1    
    34   17   18 1    
    35   17   81 1    
    36   17   82 1    
    37   18   19 1    
    38   18   22 1    
    39   18   83 1    
    40   19   20 am   BACKBONE|DICT|INTERRES
    41   19   21 2    
    42   20   84 1    
    43   20   85 1    
    44   22   23 am   BACKBONE|DICT|INTERRES
    45   22   86 1    
    46   23   24 2    
    47   23   25 1    
    48   25   26 1    
    49   25   27 1    
    50   25   87 1    
    51   26   88 1    
    52   26   89 1    
    53   26   90 1    
    54   27   28 am   BACKBONE|DICT|INTERRES
    55   27   91 1    
    56   28   29 2    
    57   28   30 1    
    58   30   31 1    
    59   30   32 1    
    60   30   92 1    
    61   31   93 1    
    62   31   94 1    
    63   31   95 1    
    64   32   33 am   BACKBONE|DICT|INTERRES
    65   32   96 1    
    66   33   34 2    
    67   33   35 1    
    68   35   36 1    
    69   35   37 1    
    70   35   97 1    
    71   36   98 1    
    72   36   99 1    
    73   36  100 1    
    74   37   38 am   BACKBONE|DICT|INTERRES
    75   37  101 1    
    76   38   39 2    
    77   38   40 1    
    78   40   41 1    
    79   40   42 1    
    80   40  102 1    
    81   41  103 1    
    82   41  104 1    
    83   41  105 1    
    84   42   43 am   BACKBONE|DICT|INTERRES
    85   42  106 1    
    86   43   44 2    
    87   43   45 1    
    88   45   46 1    
    89   45   49 1    
    90   45  107 1    
    91   46   47 1    
    92   46  108 1    
    93   46  109 1    
    94   47   48 1    
    95   48  110 1    
    96   48  111 1    
    97   49   50 am   BACKBONE|DICT|INTERRES
    98   49  112 1    
    99   50   51 2    
   100   50   52 1    
   101   52   53 1    
   102   52   54 1    
   103   52  113 1    
   104   53  114 1    
   105   53  115 1    
   106   53  116 1    
   107   54   55 am   BACKBONE|DICT|INTERRES
   108   54  117 1    
   109   55   56 2    
   110   55   57 1    
   111   57   58 1    
   112   57   59 1    
   113   57  118 1    
   114   58  119 1    
   115   58  120 1    
   116   58  121 1    
   117   59   60 am   BACKBONE|DICT|INTERRES
   118   59  122 1    
   119   60   61 2    
   120   60   62 1    
   121   62   63 1    
   122   62   64 1    
   123   62  123 1    
   124   63  124 1    
   125   63  125 1    
   126   63  126 1    
   127   64   65 am   BACKBONE|DICT|INTERRES
   128   64  127 1    
   129   65   66 2    
@<TRIPOS>SUBSTRUCTURE
     1 UNK         1 GROUP             0       ****    0 ROOT    
