@<TRIPOS>MOLECULE
3R135
127   129    1
SMALL
USER_CHARGES


@<TRIPOS>ATOM
      1 CA        -79.6020   28.2880  -75.9416 C.3       0 UNK        -0.1998 
      2 C         -80.6920   27.6687  -75.0800 C.2       0 UNK         0.4909 
      3 O         -81.6260   27.0784  -75.6220 O.2       0 UNK        -0.5240 
      4 N         -80.5567   27.7796  -73.7499 N.am      1 UNK        -0.4739 
      5 CA        -81.5041   27.3545  -72.7046 C.3       1 UNK         0.0864 
      6 C6        -82.6184   28.3961  -72.4271 C.3       11 UNK        -0.0881 
      7 S7        -81.9939   30.0792  -72.0707 S.3       11 UNK        -0.2682 
      8 C8        -81.1444   29.8931  -70.4634 C.3       11 UNK         0.0289 
      9 C9        -79.6402   29.7159  -70.6405 C.ar      11 UNK        -0.0687 
     10 C10       -79.0359   28.4720  -70.4352 C.ar      11 UNK        -0.0823 
     11 C11       -77.6752   28.2958  -70.6914 C.ar      11 UNK        -0.0830 
     12 C12       -76.8964   29.3967  -71.0528 C.ar      11 UNK        -0.1021 
     13 C13       -77.4725   30.6605  -71.2307 C.ar      11 UNK        -0.0753 
     14 C14       -78.8502   30.8031  -71.0301 C.ar      11 UNK        -0.0933 
     15 C15       -76.6706   31.8884  -71.6744 C.3       11 UNK         0.0166 
     16 S16       -74.8496   31.7542  -71.5641 S.3       11 UNK        -0.2615 
     17 C17       -74.4546   30.8013  -73.0723 C.3       11 UNK        -0.0865 
     18 CA        -73.0918   30.0651  -72.9837 C.3       10 UNK         0.0862 
     19 C         -73.1265   28.8593  -72.0094 C.2       10 UNK         0.5551 
     20 N         -72.5274   28.9891  -70.8320 N.am      10 UNK        -0.7319 
     21 O         -73.7194   27.8211  -72.2964 O.2       10 UNK        -0.5018 
     22 N         -72.6893   29.5984  -74.3114 N.am      10 UNK        -0.4509 
     23 C         -71.6442   30.0361  -75.0204 C.2       10 UNK         0.4899 
     24 O         -70.8889   30.9368  -74.6503 O.2       10 UNK        -0.4839 
     25 CA        -71.4197   29.3475  -76.3809 C.3       9 UNK         0.0222 
     26 CB        -70.0864   29.7389  -77.0531 C.3       9 UNK        -0.1966 
     27 N         -71.5661   27.8897  -76.3049 N.am      9 UNK        -0.4218 
     28 C         -70.8272   27.0226  -75.5946 C.2       9 UNK         0.5020 
     29 O         -69.8525   27.3450  -74.9139 O.2       9 UNK        -0.5274 
     30 CA        -71.2452   25.5379  -75.6297 C.3       8 UNK         0.0270 
     31 CB        -71.8429   25.1240  -74.2749 C.3       8 UNK        -0.1976 
     32 N         -72.2049   25.2139  -76.6899 N.am      8 UNK        -0.4313 
     33 C         -71.9241   25.1685  -77.9998 C.2       8 UNK         0.5041 
     34 O         -70.7941   25.3185  -78.4653 O.2       8 UNK        -0.5577 
     35 CA        -73.1157   24.9681  -78.9521 C.3       7 UNK         0.0284 
     36 CB        -73.4455   23.4756  -79.1179 C.3       7 UNK        -0.1958 
     37 N         -74.3080   25.6959  -78.5061 N.am      7 UNK        -0.4454 
     38 C         -74.4313   27.0315  -78.5221 C.2       7 UNK         0.5089 
     39 O         -73.5732   27.7941  -78.9649 O.2       7 UNK        -0.5125 
     40 CA        -75.7049   27.6183  -77.8927 C.3       6 UNK         0.0408 
     41 CB        -76.8525   27.6492  -78.9141 C.3       6 UNK        -0.1791 
     42 N         -76.1122   26.8832  -76.6913 N.am      6 UNK        -0.4762 
     43 C         -75.4552   26.9551  -75.5207 C.2       6 UNK         0.5007 
     44 O         -74.4795   27.6829  -75.3463 O.2       6 UNK        -0.5032 
     45 CA        -75.9407   26.0540  -74.3619 C.3       5 UNK         0.0783 
     46 C46       -76.9456   26.8314  -73.4823 C.3       11 UNK        -0.0857 
     47 S47       -77.5749   25.8809  -72.0525 S.3       11 UNK        -0.2512 
     48 C48       -77.0532   26.9068  -70.6328 C.3       11 UNK         0.0225 
     49 N         -76.4934   24.7821  -74.8346 N.am      5 UNK        -0.4615 
     50 C         -75.8346   23.8702  -75.5606 C.2       4 UNK         0.5053 
     51 O         -74.6446   23.9678  -75.8574 O.2       4 UNK        -0.5105 
     52 CA        -76.6523   22.6837  -76.1000 C.3       4 UNK         0.0263 
     53 CB        -76.4865   21.4625  -75.1832 C.3       4 UNK        -0.1981 
     54 N         -78.0827   22.9681  -76.2708 N.am      4 UNK        -0.4224 
     55 C         -78.6184   23.9330  -77.0312 C.2       3 UNK         0.4895 
     56 O         -77.9483   24.7307  -77.6866 O.2       3 UNK        -0.5091 
     57 CA        -80.1513   24.0745  -77.0168 C.3       3 UNK         0.0250 
     58 CB        -80.8223   22.9995  -77.8935 C.3       3 UNK        -0.1996 
     59 N         -80.7363   24.1289  -75.6671 N.am      3 UNK        -0.4254 
     60 C         -80.7735   23.1721  -74.7243 C.2       2 UNK         0.5004 
     61 O         -80.3308   22.0344  -74.8921 O.2       2 UNK        -0.5226 
     62 CA        -81.3459   23.5668  -73.3515 C.3       2 UNK         0.0269 
     63 CB        -80.7438   22.7282  -72.2077 C.3       2 UNK        -0.1926 
     64 N         -81.0930   24.9826  -73.0783 N.am      2 UNK        -0.4687 
     65 C         -82.0325   25.9156  -72.8851 C.2       1 UNK         0.5165 
     66 O         -83.2424   25.6814  -72.8666 O.2       1 UNK        -0.5079 
     67 H67       -78.9191   28.9066  -75.3596 H         1 UNK         0.0900 
     68 H68       -79.0264   27.5045  -76.4328 H         1 UNK         0.0900 
     69 H69       -80.0469   28.9165  -76.7128 H         1 UNK         0.0900 
     70 H70       -79.7586   28.2849  -73.3911 H         1 UNK         0.2959 
     71 H71       -80.9225   27.2784  -71.7938 H         1 UNK         0.1079 
     72 H72       -83.2407   28.0812  -71.5872 H         1 UNK         0.0837 
     73 H73       -83.2850   28.4629  -73.2889 H         1 UNK         0.0837 
     74 H74       -81.3270   30.7883  -69.8672 H         1 UNK         0.0685 
     75 H75       -81.5769   29.0626  -69.9035 H         1 UNK         0.0685 
     76 H76       -79.6240   27.6247  -70.1130 H         1 UNK         0.1434 
     77 H77       -75.8424   29.2447  -71.2202 H         1 UNK         0.1329 
     78 H78       -79.3169   31.7661  -71.1886 H         1 UNK         0.1335 
     79 H79       -76.9705   32.7377  -71.0586 H         1 UNK         0.0680 
     80 H80       -76.9467   32.1417  -72.6990 H         1 UNK         0.0680 
     81 H81       -74.4317   31.5131  -73.8991 H         1 UNK         0.1032 
     82 H82       -75.2587   30.1028  -73.3109 H         1 UNK         0.1032 
     83 H83       -72.3494   30.7756  -72.6142 H         1 UNK         0.0461 
     84 H84       -72.5508   28.2179  -70.1840 H         1 UNK         0.3453 
     85 H85       -72.0601   29.8460  -70.5759 H         1 UNK         0.3453 
     86 H86       -73.2468   28.8265  -74.6772 H         1 UNK         0.2984 
     87 H87       -72.2256   29.6934  -77.0300 H         1 UNK         0.0554 
     88 H88       -70.0388   30.8143  -77.2282 H         1 UNK         0.0847 
     89 H89       -69.9717   29.2487  -78.0199 H         1 UNK         0.0847 
     90 H90       -69.2265   29.4730  -76.4376 H         1 UNK         0.0847 
     91 H91       -72.3616   27.5136  -76.8029 H         1 UNK         0.3141 
     92 H92       -70.3421   24.9484  -75.8006 H         1 UNK         0.0743 
     93 H93       -71.1209   25.2655  -73.4696 H         1 UNK         0.0784 
     94 H94       -72.7218   25.7194  -74.0278 H         1 UNK         0.0784 
     95 H95       -72.1343   24.0734  -74.2693 H         1 UNK         0.0784 
     96 H96       -73.1493   24.9750  -76.3936 H         1 UNK         0.3213 
     97 H97       -72.8273   25.3611  -79.9297 H         1 UNK         0.0855 
     98 H98       -73.7347   23.0126  -78.1743 H         1 UNK         0.0814 
     99 H99       -72.5807   22.9280  -79.4951 H         1 UNK         0.0814 
    100 H100      -74.2580   23.3250  -79.8288 H         1 UNK         0.0814 
    101 H101      -75.0535   25.1510  -78.0963 H         1 UNK         0.3105 
    102 H102      -75.4899   28.6498  -77.6044 H         1 UNK         0.0547 
    103 H103      -76.5774   28.2441  -79.7860 H         1 UNK         0.0837 
    104 H104      -77.7518   28.0960  -78.4916 H         1 UNK         0.0837 
    105 H105      -77.1077   26.6519  -79.2729 H         1 UNK         0.0837 
    106 H106      -76.8665   26.2130  -76.8027 H         1 UNK         0.3020 
    107 H107      -75.0669   25.8215  -73.7499 H         1 UNK         0.1245 
    108 H108      -77.8055   27.1392  -74.0738 H         1 UNK         0.0781 
    109 H109      -76.4771   27.7505  -73.1316 H         1 UNK         0.0781 
    110 H110      -75.9635   26.9664  -70.6158 H         1 UNK         0.0836 
    111 H111      -77.3488   26.4127  -69.7063 H         1 UNK         0.0836 
    112 H112      -77.4600   24.6050  -74.6101 H         1 UNK         0.3022 
    113 H113      -76.2493   22.4350  -77.0837 H         1 UNK         0.0747 
    114 H114      -75.4328   21.2119  -75.0516 H         1 UNK         0.0793 
    115 H115      -76.9068   21.6421  -74.1927 H         1 UNK         0.0793 
    116 H116      -76.9776   20.5834  -75.6011 H         1 UNK         0.0793 
    117 H117      -78.7364   22.3862  -75.7497 H         1 UNK         0.3047 
    118 H118      -80.3755   25.0431  -77.4672 H         1 UNK         0.0822 
    119 H119      -81.9015   23.1449  -77.9398 H         1 UNK         0.0807 
    120 H120      -80.6362   21.9902  -77.5254 H         1 UNK         0.0807 
    121 H121      -80.4457   23.0435  -78.9162 H         1 UNK         0.0807 
    122 H122      -81.1340   25.0309  -75.4239 H         1 UNK         0.2946 
    123 H123      -82.4187   23.3661  -73.3956 H         1 UNK         0.1144 
    124 H124      -79.6600   22.8401  -72.1534 H         1 UNK         0.0793 
    125 H125      -80.9580   21.6670  -72.3410 H         1 UNK         0.0793 
    126 H126      -81.1590   23.0201  -71.2430 H         1 UNK         0.0793 
    127 H127      -80.1244   25.2730  -73.0833 H         1 UNK         0.2896 
@<TRIPOS>BOND
     1    1    2 1    
     2    1   67 1    
     3    1   68 1    
     4    1   69 1    
     5    2    3 2    
     6    2    4 am   BACKBONE|DICT|INTERRES
     7    4    5 1    
     8    4   70 1    
     9    5    6 1    
    10    5   65 1    
    11    5   71 1    
    12    6    7 1    
    13    6   72 1    
    14    6   73 1    
    15    7    8 1    
    16    8    9 1    
    17    8   74 1    
    18    8   75 1    
    19    9   10 ar   
    20    9   14 ar   
    21   10   11 ar   
    22   10   76 1    
    23   11   12 ar   
    24   11   48 1    
    25   12   13 ar   
    26   12   77 1    
    27   13   14 ar   
    28   13   15 1    
    29   14   78 1    
    30   15   16 1    
    31   15   79 1    
    32   15   80 1    
    33   16   17 1    
    34   17   18 1    
    35   17   81 1    
    36   17   82 1    
    37   18   19 1    
    38   18   22 1    
    39   18   83 1    
    40   19   20 am   BACKBONE|DICT|INTERRES
    41   19   21 2    
    42   20   84 1    
    43   20   85 1    
    44   22   23 am   BACKBONE|DICT|INTERRES
    45   22   86 1    
    46   23   24 2    
    47   23   25 1    
    48   25   26 1    
    49   25   27 1    
    50   25   87 1    
    51   26   88 1    
    52   26   89 1    
    53   26   90 1    
    54   27   28 am   BACKBONE|DICT|INTERRES
    55   27   91 1    
    56   28   29 2    
    57   28   30 1    
    58   30   31 1    
    59   30   32 1    
    60   30   92 1    
    61   31   93 1    
    62   31   94 1    
    63   31   95 1    
    64   32   33 am   BACKBONE|DICT|INTERRES
    65   32   96 1    
    66   33   34 2    
    67   33   35 1    
    68   35   36 1    
    69   35   37 1    
    70   35   97 1    
    71   36   98 1    
    72   36   99 1    
    73   36  100 1    
    74   37   38 am   BACKBONE|DICT|INTERRES
    75   37  101 1    
    76   38   39 2    
    77   38   40 1    
    78   40   41 1    
    79   40   42 1    
    80   40  102 1    
    81   41  103 1    
    82   41  104 1    
    83   41  105 1    
    84   42   43 am   BACKBONE|DICT|INTERRES
    85   42  106 1    
    86   43   44 2    
    87   43   45 1    
    88   45   46 1    
    89   45   49 1    
    90   45  107 1    
    91   46   47 1    
    92   46  108 1    
    93   46  109 1    
    94   47   48 1    
    95   48  110 1    
    96   48  111 1    
    97   49   50 am   BACKBONE|DICT|INTERRES
    98   49  112 1    
    99   50   51 2    
   100   50   52 1    
   101   52   53 1    
   102   52   54 1    
   103   52  113 1    
   104   53  114 1    
   105   53  115 1    
   106   53  116 1    
   107   54   55 am   BACKBONE|DICT|INTERRES
   108   54  117 1    
   109   55   56 2    
   110   55   57 1    
   111   57   58 1    
   112   57   59 1    
   113   57  118 1    
   114   58  119 1    
   115   58  120 1    
   116   58  121 1    
   117   59   60 am   BACKBONE|DICT|INTERRES
   118   59  122 1    
   119   60   61 2    
   120   60   62 1    
   121   62   63 1    
   122   62   64 1    
   123   62  123 1    
   124   63  124 1    
   125   63  125 1    
   126   63  126 1    
   127   64   65 am   BACKBONE|DICT|INTERRES
   128   64  127 1    
   129   65   66 2    
@<TRIPOS>SUBSTRUCTURE
     1 UNK         1 GROUP             0       ****    0 ROOT    
