@<TRIPOS>MOLECULE
3R135
127   129    1
SMALL
USER_CHARGES


@<TRIPOS>ATOM
      1 CA        -85.5440   26.9507  -73.7039 C.3       0 UNK        -0.1998 
      2 C         -84.1499   26.3632  -73.5464 C.2       0 UNK         0.4909 
      3 O         -83.9160   25.2279  -73.9602 O.2       0 UNK        -0.5240 
      4 N         -83.2175   27.1373  -72.9693 N.am      1 UNK        -0.4739 
      5 CA        -81.8193   26.7699  -72.6789 C.3       1 UNK         0.0864 
      6 C6        -81.7291   25.5381  -71.7303 C.3       11 UNK        -0.0881 
      7 S7        -80.1805   25.3003  -70.7879 S.3       11 UNK        -0.2682 
      8 C8        -79.8845   26.8945  -69.9542 C.3       11 UNK         0.0289 
      9 C9        -78.6814   27.6143  -70.5513 C.ar      11 UNK        -0.0687 
     10 C10       -78.8426   28.7470  -71.3547 C.ar      11 UNK        -0.0823 
     11 C11       -77.7303   29.3953  -71.9007 C.ar      11 UNK        -0.0830 
     12 C12       -76.4490   28.9122  -71.6205 C.ar      11 UNK        -0.1021 
     13 C13       -76.2677   27.7738  -70.8262 C.ar      11 UNK        -0.0753 
     14 C14       -77.3923   27.1413  -70.2878 C.ar      11 UNK        -0.0933 
     15 C15       -74.8843   27.2035  -70.5129 C.3       11 UNK         0.0166 
     16 S16       -73.6290   27.4646  -71.8126 S.3       11 UNK        -0.2615 
     17 C17       -72.9285   29.0798  -71.3285 C.3       11 UNK        -0.0865 
     18 CA        -72.5567   29.9667  -72.5453 C.3       10 UNK         0.0862 
     19 C         -72.1016   31.3682  -72.0504 C.2       10 UNK         0.5551 
     20 N         -72.9877   32.3542  -72.0744 N.am      10 UNK        -0.7319 
     21 O         -70.9719   31.5505  -71.6001 O.2       10 UNK        -0.5018 
     22 N         -71.5636   29.2950  -73.3996 N.am      10 UNK        -0.4509 
     23 C         -70.9934   29.7938  -74.5057 C.2       10 UNK         0.4899 
     24 O         -71.2520   30.8982  -74.9849 O.2       10 UNK        -0.4839 
     25 CA        -69.9555   28.8988  -75.2097 C.3       9 UNK         0.0222 
     26 CB        -68.5511   29.1557  -74.6387 C.3       9 UNK        -0.1966 
     27 N         -70.2632   27.4660  -75.1279 N.am      9 UNK        -0.4218 
     28 C         -71.3069   26.8832  -75.7343 C.2       9 UNK         0.5020 
     29 O         -72.0987   27.4926  -76.4557 O.2       9 UNK        -0.5274 
     30 CA        -71.4781   25.3730  -75.4978 C.3       8 UNK         0.0270 
     31 CB        -71.7465   25.0569  -74.0161 C.3       8 UNK        -0.1976 
     32 N         -72.6029   24.8626  -76.2783 N.am      8 UNK        -0.4313 
     33 C         -72.5131   24.2492  -77.4623 C.2       8 UNK         0.5041 
     34 O         -71.4491   23.9785  -78.0220 O.2       8 UNK        -0.5577 
     35 CA        -73.8394   23.8653  -78.1326 C.3       7 UNK         0.0284 
     36 CB        -74.4670   22.6441  -77.4403 C.3       7 UNK        -0.1958 
     37 N         -74.7932   24.9762  -78.1255 N.am      7 UNK        -0.4454 
     38 C         -74.8700   25.9138  -79.0794 C.2       7 UNK         0.5089 
     39 O         -74.1298   25.9472  -80.0635 O.2       7 UNK        -0.5125 
     40 CA        -75.9784   26.9746  -78.9501 C.3       6 UNK         0.0408 
     41 CB        -77.1369   26.6452  -79.9054 C.3       6 UNK        -0.1791 
     42 N         -76.4997   27.0927  -77.5851 N.am      6 UNK        -0.4762 
     43 C         -75.9819   27.9104  -76.6558 C.2       6 UNK         0.5007 
     44 O         -75.0604   28.6939  -76.8819 O.2       6 UNK        -0.5032 
     45 CA        -76.5945   27.8616  -75.2389 C.3       5 UNK         0.0783 
     46 C46       -77.7023   28.9394  -75.0724 C.3       11 UNK        -0.0857 
     47 S47       -77.0428   30.4971  -74.3883 S.3       11 UNK        -0.2512 
     48 C48       -77.9183   30.6207  -72.7896 C.3       11 UNK         0.0225 
     49 N         -77.0562   26.5305  -74.8244 N.am      5 UNK        -0.4615 
     50 C         -76.2868   25.4354  -74.7323 C.2       4 UNK         0.5053 
     51 O         -75.1204   25.3790  -75.1186 O.2       4 UNK        -0.5105 
     52 CA        -76.9302   24.1814  -74.1286 C.3       4 UNK         0.0263 
     53 CB        -77.0390   24.3197  -72.6033 C.3       4 UNK        -0.1981 
     54 N         -78.2559   23.9625  -74.7033 N.am      4 UNK        -0.4224 
     55 C         -78.5059   23.1461  -75.7369 C.2       3 UNK         0.4895 
     56 O         -77.6732   22.3835  -76.2267 O.2       3 UNK        -0.5091 
     57 CA        -79.9182   23.1962  -76.3523 C.3       3 UNK         0.0250 
     58 CB        -80.8273   22.1450  -75.6958 C.3       3 UNK        -0.1996 
     59 N         -80.5599   24.5107  -76.2624 N.am      3 UNK        -0.4254 
     60 C         -80.0721   25.6469  -76.7819 C.2       2 UNK         0.5004 
     61 O         -79.0462   25.7096  -77.4575 O.2       2 UNK        -0.5226 
     62 CA        -80.8154   26.9478  -76.4348 C.3       2 UNK         0.0269 
     63 CB        -81.8385   27.2876  -77.5293 C.3       2 UNK        -0.1926 
     64 N         -81.4865   26.9426  -75.1283 N.am      2 UNK        -0.4687 
     65 C         -80.9281   26.6539  -73.9415 C.2       1 UNK         0.5165 
     66 O         -79.7452   26.3294  -73.8302 O.2       1 UNK        -0.5079 
     67 H67       -85.8232   26.9782  -74.7569 H         1 UNK         0.0900 
     68 H68       -85.6077   27.9645  -73.3092 H         1 UNK         0.0900 
     69 H69       -86.2710   26.3351  -73.1750 H         1 UNK         0.0900 
     70 H70       -83.4795   28.0694  -72.6765 H         1 UNK         0.2959 
     71 H71       -81.4280   27.6334  -72.1484 H         1 UNK         0.1079 
     72 H72       -81.9187   24.6196  -72.2882 H         1 UNK         0.0837 
     73 H73       -82.5277   25.5945  -70.9888 H         1 UNK         0.0837 
     74 H74       -80.7779   27.5190  -69.9750 H         1 UNK         0.0685 
     75 H75       -79.6880   26.6977  -68.8994 H         1 UNK         0.0685 
     76 H76       -79.8327   29.1297  -71.5545 H         1 UNK         0.1434 
     77 H77       -75.5984   29.4234  -72.0442 H         1 UNK         0.1329 
     78 H78       -77.2688   26.2635  -69.6681 H         1 UNK         0.1335 
     79 H79       -74.9670   26.1260  -70.3629 H         1 UNK         0.0680 
     80 H80       -74.5301   27.6149  -69.5670 H         1 UNK         0.0680 
     81 H81       -72.0512   28.8989  -70.7041 H         1 UNK         0.1032 
     82 H82       -73.6451   29.5998  -70.6895 H         1 UNK         0.1032 
     83 H83       -73.4507   30.0978  -73.1586 H         1 UNK         0.0461 
     84 H84       -72.7148   33.2655  -71.7406 H         1 UNK         0.3453 
     85 H85       -73.9169   32.2130  -72.4386 H         1 UNK         0.3453 
     86 H86       -71.2909   28.3718  -73.0998 H         1 UNK         0.2984 
     87 H87       -69.9448   29.1771  -76.2658 H         1 UNK         0.0554 
     88 H88       -67.7905   28.5975  -75.1850 H         1 UNK         0.0847 
     89 H89       -68.4834   28.8776  -73.5862 H         1 UNK         0.0847 
     90 H90       -68.2889   30.2122  -74.7121 H         1 UNK         0.0847 
     91 H91       -69.6441   26.8970  -74.5682 H         1 UNK         0.3141 
     92 H92       -70.5527   24.8779  -75.7994 H         1 UNK         0.0743 
     93 H93       -70.9552   25.4325  -73.3669 H         1 UNK         0.0784 
     94 H94       -72.6858   25.4960  -73.6816 H         1 UNK         0.0784 
     95 H95       -71.8117   23.9813  -73.8514 H         1 UNK         0.0784 
     96 H96       -73.5277   25.0930  -75.9156 H         1 UNK         0.3213 
     97 H97       -73.6220   23.5841  -79.1656 H         1 UNK         0.0855 
     98 H98       -73.7773   21.7992  -77.4388 H         1 UNK         0.0814 
     99 H99       -75.3731   22.3213  -77.9535 H         1 UNK         0.0814 
    100 H100      -74.7301   22.8523  -76.4026 H         1 UNK         0.0814 
    101 H101      -75.3859   25.0700  -77.3115 H         1 UNK         0.3105 
    102 H102      -75.5560   27.9320  -79.2625 H         1 UNK         0.0547 
    103 H103      -76.7965   26.6345  -80.9416 H         1 UNK         0.0837 
    104 H104      -77.5672   25.6652  -79.6958 H         1 UNK         0.0837 
    105 H105      -77.9352   27.3840  -79.8336 H         1 UNK         0.0837 
    106 H106      -77.3058   26.5152  -77.3543 H         1 UNK         0.3020 
    107 H107      -75.7757   28.0924  -74.5524 H         1 UNK         0.1245 
    108 H108      -78.4920   28.5849  -74.4107 H         1 UNK         0.0781 
    109 H109      -78.2037   29.1613  -76.0162 H         1 UNK         0.0781 
    110 H110      -78.9766   30.7966  -72.9887 H         1 UNK         0.0836 
    111 H111      -77.5561   31.5009  -72.2568 H         1 UNK         0.0836 
    112 H112      -78.0052   26.4810  -74.4625 H         1 UNK         0.3022 
    113 H113      -76.2808   23.3297  -74.3416 H         1 UNK         0.0747 
    114 H114      -77.4773   23.4296  -72.1523 H         1 UNK         0.0793 
    115 H115      -76.0561   24.4664  -72.1536 H         1 UNK         0.0793 
    116 H116      -77.6546   25.1742  -72.3232 H         1 UNK         0.0793 
    117 H117      -78.9894   24.5872  -74.3834 H         1 UNK         0.3047 
    118 H118      -79.8187   22.9533  -77.4123 H         1 UNK         0.0822 
    119 H119      -81.8013   22.1012  -76.1835 H         1 UNK         0.0807 
    120 H120      -80.9898   22.3561  -74.6379 H         1 UNK         0.0807 
    121 H121      -80.3866   21.1494  -75.7660 H         1 UNK         0.0807 
    122 H122      -81.4075   24.5685  -75.7155 H         1 UNK         0.2946 
    123 H123      -80.0682   27.7417  -76.4115 H         1 UNK         0.1144 
    124 H124      -81.3645   27.3169  -78.5118 H         1 UNK         0.0793 
    125 H125      -82.2905   28.2654  -77.3617 H         1 UNK         0.0793 
    126 H126      -82.6402   26.5493  -77.5756 H         1 UNK         0.0793 
    127 H127      -82.4659   27.1878  -75.1257 H         1 UNK         0.2896 
@<TRIPOS>BOND
     1    1    2 1    
     2    1   67 1    
     3    1   68 1    
     4    1   69 1    
     5    2    3 2    
     6    2    4 am   BACKBONE|DICT|INTERRES
     7    4    5 1    
     8    4   70 1    
     9    5    6 1    
    10    5   65 1    
    11    5   71 1    
    12    6    7 1    
    13    6   72 1    
    14    6   73 1    
    15    7    8 1    
    16    8    9 1    
    17    8   74 1    
    18    8   75 1    
    19    9   10 ar   
    20    9   14 ar   
    21   10   11 ar   
    22   10   76 1    
    23   11   12 ar   
    24   11   48 1    
    25   12   13 ar   
    26   12   77 1    
    27   13   14 ar   
    28   13   15 1    
    29   14   78 1    
    30   15   16 1    
    31   15   79 1    
    32   15   80 1    
    33   16   17 1    
    34   17   18 1    
    35   17   81 1    
    36   17   82 1    
    37   18   19 1    
    38   18   22 1    
    39   18   83 1    
    40   19   20 am   BACKBONE|DICT|INTERRES
    41   19   21 2    
    42   20   84 1    
    43   20   85 1    
    44   22   23 am   BACKBONE|DICT|INTERRES
    45   22   86 1    
    46   23   24 2    
    47   23   25 1    
    48   25   26 1    
    49   25   27 1    
    50   25   87 1    
    51   26   88 1    
    52   26   89 1    
    53   26   90 1    
    54   27   28 am   BACKBONE|DICT|INTERRES
    55   27   91 1    
    56   28   29 2    
    57   28   30 1    
    58   30   31 1    
    59   30   32 1    
    60   30   92 1    
    61   31   93 1    
    62   31   94 1    
    63   31   95 1    
    64   32   33 am   BACKBONE|DICT|INTERRES
    65   32   96 1    
    66   33   34 2    
    67   33   35 1    
    68   35   36 1    
    69   35   37 1    
    70   35   97 1    
    71   36   98 1    
    72   36   99 1    
    73   36  100 1    
    74   37   38 am   BACKBONE|DICT|INTERRES
    75   37  101 1    
    76   38   39 2    
    77   38   40 1    
    78   40   41 1    
    79   40   42 1    
    80   40  102 1    
    81   41  103 1    
    82   41  104 1    
    83   41  105 1    
    84   42   43 am   BACKBONE|DICT|INTERRES
    85   42  106 1    
    86   43   44 2    
    87   43   45 1    
    88   45   46 1    
    89   45   49 1    
    90   45  107 1    
    91   46   47 1    
    92   46  108 1    
    93   46  109 1    
    94   47   48 1    
    95   48  110 1    
    96   48  111 1    
    97   49   50 am   BACKBONE|DICT|INTERRES
    98   49  112 1    
    99   50   51 2    
   100   50   52 1    
   101   52   53 1    
   102   52   54 1    
   103   52  113 1    
   104   53  114 1    
   105   53  115 1    
   106   53  116 1    
   107   54   55 am   BACKBONE|DICT|INTERRES
   108   54  117 1    
   109   55   56 2    
   110   55   57 1    
   111   57   58 1    
   112   57   59 1    
   113   57  118 1    
   114   58  119 1    
   115   58  120 1    
   116   58  121 1    
   117   59   60 am   BACKBONE|DICT|INTERRES
   118   59  122 1    
   119   60   61 2    
   120   60   62 1    
   121   62   63 1    
   122   62   64 1    
   123   62  123 1    
   124   63  124 1    
   125   63  125 1    
   126   63  126 1    
   127   64   65 am   BACKBONE|DICT|INTERRES
   128   64  127 1    
   129   65   66 2    
@<TRIPOS>SUBSTRUCTURE
     1 UNK         1 GROUP             0       ****    0 ROOT    
