@<TRIPOS>MOLECULE
3R135
127   129    1
SMALL
USER_CHARGES


@<TRIPOS>ATOM
      1 CA        -83.1193   30.1551  -76.8295 C.3       0 UNK        -0.1998 
      2 C         -82.1336   29.0645  -77.2209 C.2       0 UNK         0.4909 
      3 O         -82.1253   28.6312  -78.3732 O.2       0 UNK        -0.5240 
      4 N         -81.3036   28.6176  -76.2692 N.am      1 UNK        -0.4739 
      5 CA        -80.2786   27.5814  -76.4682 C.3       1 UNK         0.0864 
      6 C6        -79.2293   27.5707  -75.3258 C.3       11 UNK        -0.0881 
      7 S7        -78.4716   29.2073  -75.0412 S.3       11 UNK        -0.2682 
      8 C8        -78.7687   29.4762  -73.2642 C.3       11 UNK         0.0289 
      9 C9        -77.6425   28.9295  -72.3935 C.ar      11 UNK        -0.0687 
     10 C10       -77.4787   27.5511  -72.2213 C.ar      11 UNK        -0.0823 
     11 C11       -76.4720   27.0507  -71.3892 C.ar      11 UNK        -0.0830 
     12 C12       -75.6415   27.9418  -70.7044 C.ar      11 UNK        -0.1021 
     13 C13       -75.7863   29.3214  -70.8733 C.ar      11 UNK        -0.0753 
     14 C14       -76.7837   29.8085  -71.7243 C.ar      11 UNK        -0.0933 
     15 C15       -74.8900   30.2880  -70.1125 C.3       11 UNK         0.0166 
     16 S16       -73.3991   30.7275  -71.0575 S.3       11 UNK        -0.2615 
     17 C17       -72.3165   29.2939  -70.7207 C.3       11 UNK        -0.0865 
     18 CA        -70.9999   29.3365  -71.5395 C.3       10 UNK         0.0862 
     19 C         -70.0358   28.1901  -71.1151 C.2       10 UNK         0.5551 
     20 N         -69.6515   27.2785  -72.0003 N.am      10 UNK        -0.7319 
     21 O         -69.6240   28.1329  -69.9591 O.2       10 UNK        -0.5018 
     22 N         -71.2853   29.4034  -72.9795 N.am      10 UNK        -0.4509 
     23 C         -70.4653   29.8767  -73.9254 C.2       10 UNK         0.4899 
     24 O         -69.3167   30.2652  -73.7125 O.2       10 UNK        -0.4839 
     25 CA        -71.0330   29.9377  -75.3554 C.3       9 UNK         0.0222 
     26 CB        -70.5490   28.7345  -76.1806 C.3       9 UNK        -0.1966 
     27 N         -72.4978   29.9689  -75.3698 N.am      9 UNK        -0.4218 
     28 C         -73.2595   31.0232  -75.0535 C.2       9 UNK         0.5020 
     29 O         -72.8067   32.1490  -74.8372 O.2       9 UNK        -0.5274 
     30 CA        -74.7783   30.7621  -74.9611 C.3       8 UNK         0.0270 
     31 CB        -75.5869   32.0370  -74.6568 C.3       8 UNK        -0.1976 
     32 N         -75.3276   30.1202  -76.1607 N.am      8 UNK        -0.4313 
     33 C         -75.1688   28.8327  -76.4893 C.2       8 UNK         0.5041 
     34 O         -74.4647   28.0476  -75.8464 O.2       8 UNK        -0.5577 
     35 CA        -75.8831   28.3494  -77.7556 C.3       7 UNK         0.0284 
     36 CB        -75.1292   28.7901  -79.0232 C.3       7 UNK        -0.1958 
     37 N         -75.9476   26.8953  -77.6974 N.am      7 UNK        -0.4454 
     38 C         -76.8447   26.1061  -78.2908 C.2       7 UNK         0.5089 
     39 O         -77.7189   26.5300  -79.0471 O.2       7 UNK        -0.5125 
     40 CA        -76.7812   24.5935  -77.9881 C.3       6 UNK         0.0408 
     41 CB        -75.9892   23.8452  -79.0774 C.3       6 UNK        -0.1791 
     42 N         -76.3095   24.2382  -76.6381 N.am      6 UNK        -0.4762 
     43 C         -75.0887   24.3969  -76.0971 C.2       6 UNK         0.5007 
     44 O         -74.1290   24.8641  -76.7094 O.2       6 UNK        -0.5032 
     45 CA        -74.9094   24.0150  -74.6116 C.3       5 UNK         0.0783 
     46 C46       -75.0085   25.2887  -73.7359 C.3       11 UNK        -0.0857 
     47 S47       -74.7278   24.9634  -71.9622 S.3       11 UNK        -0.2512 
     48 C48       -76.2852   25.5487  -71.2166 C.3       11 UNK         0.0225 
     49 N         -75.8452   22.9720  -74.1800 N.am      5 UNK        -0.4615 
     50 C         -75.8196   21.6977  -74.5918 C.2       4 UNK         0.5053 
     51 O         -74.9458   21.2363  -75.3263 O.2       4 UNK        -0.5105 
     52 CA        -76.9652   20.7791  -74.1199 C.3       4 UNK         0.0263 
     53 CB        -76.4839   19.8774  -72.9712 C.3       4 UNK        -0.1981 
     54 N         -78.1946   21.4700  -73.7026 N.am      4 UNK        -0.4224 
     55 C         -78.9229   22.2972  -74.4652 C.2       3 UNK         0.4895 
     56 O         -78.6080   22.6321  -75.6104 O.2       3 UNK        -0.5091 
     57 CA        -80.1847   22.8839  -73.8215 C.3       3 UNK         0.0250 
     58 CB        -79.8230   23.8894  -72.7104 C.3       3 UNK        -0.1996 
     59 N         -80.9555   23.5591  -74.8585 N.am      3 UNK        -0.4254 
     60 C         -82.2559   23.8604  -74.8259 C.2       2 UNK         0.5004 
     61 O         -83.0029   23.5668  -73.8905 O.2       2 UNK        -0.5226 
     62 CA        -82.7877   24.6690  -76.0265 C.3       2 UNK         0.0269 
     63 CB        -84.3082   24.9062  -75.9599 C.3       2 UNK        -0.1926 
     64 N         -82.1104   25.9660  -76.1173 N.am      2 UNK        -0.4687 
     65 C         -80.8840   26.1697  -76.6217 C.2       1 UNK         0.5165 
     66 O         -80.2177   25.2769  -77.1450 O.2       1 UNK        -0.5079 
     67 H67       -83.0116   30.4471  -75.7850 H         1 UNK         0.0900 
     68 H68       -82.9634   31.0399  -77.4461 H         1 UNK         0.0900 
     69 H69       -84.1414   29.8093  -76.9816 H         1 UNK         0.0900 
     70 H70       -81.3327   29.0314  -75.3483 H         1 UNK         0.2959 
     71 H71       -79.7570   27.8020  -77.4029 H         1 UNK         0.1079 
     72 H72       -78.4238   26.8696  -75.5548 H         1 UNK         0.0837 
     73 H73       -79.6882   27.2133  -74.4028 H         1 UNK         0.0837 
     74 H74       -79.7197   29.0345  -72.9642 H         1 UNK         0.0685 
     75 H75       -78.8773   30.5497  -73.1024 H         1 UNK         0.0685 
     76 H76       -78.1367   26.8665  -72.7342 H         1 UNK         0.1434 
     77 H77       -74.8774   27.5561  -70.0437 H         1 UNK         0.1329 
     78 H78       -76.9012   30.8761  -71.8504 H         1 UNK         0.1335 
     79 H79       -74.6055   29.8680  -69.1464 H         1 UNK         0.0680 
     80 H80       -75.4427   31.2025  -69.8918 H         1 UNK         0.0680 
     81 H81       -72.1033   29.2775  -69.6499 H         1 UNK         0.1032 
     82 H82       -72.8586   28.3737  -70.9414 H         1 UNK         0.1032 
     83 H83       -70.4844   30.2615  -71.2736 H         1 UNK         0.0461 
     84 H84       -69.9786   27.3245  -72.9514 H         1 UNK         0.3453 
     85 H85       -69.0238   26.5437  -71.7143 H         1 UNK         0.3453 
     86 H86       -72.2103   29.1113  -73.2553 H         1 UNK         0.2984 
     87 H87       -70.6603   30.8507  -75.8246 H         1 UNK         0.0554 
     88 H88       -69.4592   28.6877  -76.2016 H         1 UNK         0.0847 
     89 H89       -70.8892   28.8009  -77.2142 H         1 UNK         0.0847 
     90 H90       -70.9095   27.7902  -75.7704 H         1 UNK         0.0847 
     91 H91       -72.9879   29.0931  -75.5524 H         1 UNK         0.3141 
     92 H92       -74.9246   30.0808  -74.1193 H         1 UNK         0.0743 
     93 H93       -75.4894   32.7775  -75.4514 H         1 UNK         0.0784 
     94 H94       -76.6464   31.8131  -74.5307 H         1 UNK         0.0784 
     95 H95       -75.2462   32.5017  -73.7304 H         1 UNK         0.0784 
     96 H96       -75.8931   30.7056  -76.7585 H         1 UNK         0.3213 
     97 H97       -76.8970   28.7556  -77.7615 H         1 UNK         0.0855 
     98 H98       -74.1100   28.4014  -79.0386 H         1 UNK         0.0814 
     99 H99       -75.0663   29.8769  -79.0879 H         1 UNK         0.0814 
    100 H100      -75.6327   28.4425  -79.9255 H         1 UNK         0.0814 
    101 H101      -75.2446   26.4720  -77.0957 H         1 UNK         0.3105 
    102 H102      -77.8094   24.2310  -78.0315 H         1 UNK         0.0547 
    103 H103      -75.9928   22.7696  -78.9017 H         1 UNK         0.0837 
    104 H104      -74.9513   24.1749  -79.1289 H         1 UNK         0.0837 
    105 H105      -76.4294   24.0149  -80.0608 H         1 UNK         0.0837 
    106 H106      -77.0249   23.8084  -76.0585 H         1 UNK         0.3020 
    107 H107      -73.8987   23.6121  -74.5112 H         1 UNK         0.1245 
    108 H108      -75.9765   25.7718  -73.8775 H         1 UNK         0.0781 
    109 H109      -74.2627   26.0226  -74.0479 H         1 UNK         0.0781 
    110 H110      -76.2777   25.3097  -70.1522 H         1 UNK         0.0836 
    111 H111      -77.1214   24.9964  -71.6461 H         1 UNK         0.0836 
    112 H112      -76.5771   23.2572  -73.5487 H         1 UNK         0.3022 
    113 H113      -77.2269   20.1419  -74.9672 H         1 UNK         0.0747 
    114 H114      -77.2414   19.1429  -72.6969 H         1 UNK         0.0793 
    115 H115      -75.5889   19.3229  -73.2573 H         1 UNK         0.0793 
    116 H116      -76.2368   20.4567  -72.0805 H         1 UNK         0.0793 
    117 H117      -78.5240   21.2630  -72.7702 H         1 UNK         0.3047 
    118 H118      -80.7762   22.0640  -73.4086 H         1 UNK         0.0822 
    119 H119      -80.7167   24.3116  -72.2504 H         1 UNK         0.0807 
    120 H120      -79.2289   24.7163  -73.0998 H         1 UNK         0.0807 
    121 H121      -79.2495   23.4159  -71.9129 H         1 UNK         0.0807 
    122 H122      -80.4150   23.8116  -75.6830 H         1 UNK         0.2946 
    123 H123      -82.5776   24.0897  -76.9289 H         1 UNK         0.1144 
    124 H124      -84.6646   25.4398  -76.8413 H         1 UNK         0.0793 
    125 H125      -84.5903   25.4857  -75.0799 H         1 UNK         0.0793 
    126 H126      -84.8490   23.9599  -75.9152 H         1 UNK         0.0793 
    127 H127      -82.5761   26.7502  -75.6841 H         1 UNK         0.2896 
@<TRIPOS>BOND
     1    1    2 1    
     2    1   67 1    
     3    1   68 1    
     4    1   69 1    
     5    2    3 2    
     6    2    4 am   BACKBONE|DICT|INTERRES
     7    4    5 1    
     8    4   70 1    
     9    5    6 1    
    10    5   65 1    
    11    5   71 1    
    12    6    7 1    
    13    6   72 1    
    14    6   73 1    
    15    7    8 1    
    16    8    9 1    
    17    8   74 1    
    18    8   75 1    
    19    9   10 ar   
    20    9   14 ar   
    21   10   11 ar   
    22   10   76 1    
    23   11   12 ar   
    24   11   48 1    
    25   12   13 ar   
    26   12   77 1    
    27   13   14 ar   
    28   13   15 1    
    29   14   78 1    
    30   15   16 1    
    31   15   79 1    
    32   15   80 1    
    33   16   17 1    
    34   17   18 1    
    35   17   81 1    
    36   17   82 1    
    37   18   19 1    
    38   18   22 1    
    39   18   83 1    
    40   19   20 am   BACKBONE|DICT|INTERRES
    41   19   21 2    
    42   20   84 1    
    43   20   85 1    
    44   22   23 am   BACKBONE|DICT|INTERRES
    45   22   86 1    
    46   23   24 2    
    47   23   25 1    
    48   25   26 1    
    49   25   27 1    
    50   25   87 1    
    51   26   88 1    
    52   26   89 1    
    53   26   90 1    
    54   27   28 am   BACKBONE|DICT|INTERRES
    55   27   91 1    
    56   28   29 2    
    57   28   30 1    
    58   30   31 1    
    59   30   32 1    
    60   30   92 1    
    61   31   93 1    
    62   31   94 1    
    63   31   95 1    
    64   32   33 am   BACKBONE|DICT|INTERRES
    65   32   96 1    
    66   33   34 2    
    67   33   35 1    
    68   35   36 1    
    69   35   37 1    
    70   35   97 1    
    71   36   98 1    
    72   36   99 1    
    73   36  100 1    
    74   37   38 am   BACKBONE|DICT|INTERRES
    75   37  101 1    
    76   38   39 2    
    77   38   40 1    
    78   40   41 1    
    79   40   42 1    
    80   40  102 1    
    81   41  103 1    
    82   41  104 1    
    83   41  105 1    
    84   42   43 am   BACKBONE|DICT|INTERRES
    85   42  106 1    
    86   43   44 2    
    87   43   45 1    
    88   45   46 1    
    89   45   49 1    
    90   45  107 1    
    91   46   47 1    
    92   46  108 1    
    93   46  109 1    
    94   47   48 1    
    95   48  110 1    
    96   48  111 1    
    97   49   50 am   BACKBONE|DICT|INTERRES
    98   49  112 1    
    99   50   51 2    
   100   50   52 1    
   101   52   53 1    
   102   52   54 1    
   103   52  113 1    
   104   53  114 1    
   105   53  115 1    
   106   53  116 1    
   107   54   55 am   BACKBONE|DICT|INTERRES
   108   54  117 1    
   109   55   56 2    
   110   55   57 1    
   111   57   58 1    
   112   57   59 1    
   113   57  118 1    
   114   58  119 1    
   115   58  120 1    
   116   58  121 1    
   117   59   60 am   BACKBONE|DICT|INTERRES
   118   59  122 1    
   119   60   61 2    
   120   60   62 1    
   121   62   63 1    
   122   62   64 1    
   123   62  123 1    
   124   63  124 1    
   125   63  125 1    
   126   63  126 1    
   127   64   65 am   BACKBONE|DICT|INTERRES
   128   64  127 1    
   129   65   66 2    
@<TRIPOS>SUBSTRUCTURE
     1 UNK         1 GROUP             0       ****    0 ROOT    
