@<TRIPOS>MOLECULE
3R135
127   129    1
SMALL
USER_CHARGES


@<TRIPOS>ATOM
      1 CA        -79.5396   21.9479  -71.9492 C.3       0 UNK        -0.1998 
      2 C         -80.3959   23.1453  -72.3310 C.2       0 UNK         0.4909 
      3 O         -81.2121   23.0474  -73.2479 O.2       0 UNK        -0.5240 
      4 N         -80.2081   24.2818  -71.6465 N.am      1 UNK        -0.4739 
      5 CA        -80.8977   25.5493  -71.9107 C.3       1 UNK         0.0864 
      6 C6        -80.5674   26.5962  -70.8213 C.3       11 UNK        -0.0881 
      7 S7        -81.6813   28.0411  -70.8785 S.3       11 UNK        -0.2682 
      8 C8        -80.6174   29.3590  -70.2060 C.3       11 UNK         0.0289 
      9 C9        -79.4202   29.6559  -71.0994 C.ar      11 UNK        -0.0687 
     10 C10       -79.6048   30.2555  -72.3484 C.ar      11 UNK        -0.0823 
     11 C11       -78.5123   30.5372  -73.1752 C.ar      11 UNK        -0.0830 
     12 C12       -77.2225   30.2178  -72.7336 C.ar      11 UNK        -0.1021 
     13 C13       -77.0252   29.6155  -71.4868 C.ar      11 UNK        -0.0753 
     14 C14       -78.1269   29.3408  -70.6726 C.ar      11 UNK        -0.0933 
     15 C15       -75.6236   29.2422  -71.0317 C.3       11 UNK         0.0166 
     16 S16       -74.6629   30.7099  -70.5456 S.3       11 UNK        -0.2615 
     17 C17       -73.0168   29.9760  -70.2372 C.3       11 UNK        -0.0865 
     18 CA        -71.9852   30.3080  -71.3574 C.3       10 UNK         0.0862 
     19 C         -70.5320   29.8775  -70.9852 C.2       10 UNK         0.5551 
     20 N         -69.7160   29.4121  -71.9237 N.am      10 UNK        -0.7319 
     21 O         -70.1234   30.0007  -69.8329 O.2       10 UNK        -0.5018 
     22 N         -72.4378   29.8842  -72.6952 N.am      10 UNK        -0.4509 
     23 C         -72.6495   28.6241  -73.0960 C.2       10 UNK         0.4899 
     24 O         -72.4543   27.6345  -72.3879 O.2       10 UNK        -0.4839 
     25 CA        -73.2330   28.4262  -74.5073 C.3       9 UNK         0.0222 
     26 CB        -73.2606   29.6984  -75.3848 C.3       9 UNK        -0.1966 
     27 N         -72.5977   27.3138  -75.2174 N.am      9 UNK        -0.4218 
     28 C         -71.2952   27.1868  -75.5126 C.2       9 UNK         0.5020 
     29 O         -70.4489   28.0492  -75.2664 O.2       9 UNK        -0.5274 
     30 CA        -70.8368   25.8723  -76.1720 C.3       8 UNK         0.0270 
     31 CB        -70.1086   24.9888  -75.1449 C.3       8 UNK        -0.1976 
     32 N         -71.9158   25.0919  -76.7857 N.am      8 UNK        -0.4313 
     33 C         -72.5242   25.3933  -77.9405 C.2       8 UNK         0.5041 
     34 O         -72.2564   26.3948  -78.6065 O.2       8 UNK        -0.5577 
     35 CA        -73.5862   24.4073  -78.4598 C.3       7 UNK         0.0284 
     36 CB        -73.7544   23.1379  -77.5977 C.3       7 UNK        -0.1958 
     37 N         -74.8721   25.0926  -78.5427 N.am      7 UNK        -0.4454 
     38 C         -75.4514   25.5346  -79.6657 C.2       7 UNK         0.5089 
     39 O         -74.9741   25.3762  -80.7905 O.2       7 UNK        -0.5125 
     40 CA        -76.8081   26.2572  -79.5326 C.3       6 UNK         0.0408 
     41 CB        -77.9432   25.3520  -80.0382 C.3       6 UNK        -0.1791 
     42 N         -77.1269   26.6923  -78.1702 N.am      6 UNK        -0.4762 
     43 C         -76.5128   27.6853  -77.5117 C.2       6 UNK         0.5007 
     44 O         -75.6332   28.3901  -78.0057 O.2       6 UNK        -0.5032 
     45 CA        -76.9235   27.8887  -76.0377 C.3       5 UNK         0.0783 
     46 C46       -78.1798   28.7889  -75.9174 C.3       11 UNK        -0.0857 
     47 S47       -77.7280   30.5562  -75.8923 S.3       11 UNK        -0.2512 
     48 C48       -78.7516   31.2073  -74.5272 C.3       11 UNK         0.0225 
     49 N         -77.0842   26.6213  -75.3143 N.am      5 UNK        -0.4615 
     50 C         -76.1443   25.6752  -75.1678 C.2       4 UNK         0.5053 
     51 O         -74.9947   25.7721  -75.5954 O.2       4 UNK        -0.5105 
     52 CA        -76.5772   24.3724  -74.4818 C.3       4 UNK         0.0263 
     53 CB        -76.5707   24.5201  -72.9515 C.3       4 UNK        -0.1981 
     54 N         -77.8985   23.9539  -74.9524 N.am      4 UNK        -0.4224 
     55 C         -78.1206   23.3897  -76.1500 C.2       3 UNK         0.4895 
     56 O         -77.2251   23.0534  -76.9238 O.2       3 UNK        -0.5091 
     57 CA        -79.5853   23.1935  -76.5770 C.3       3 UNK         0.0250 
     58 CB        -80.0756   21.7840  -76.2106 C.3       3 UNK        -0.1996 
     59 N         -80.4826   24.2022  -76.0051 N.am      3 UNK        -0.4254 
     60 C         -80.5016   25.4865  -76.3961 C.2       2 UNK         0.5004 
     61 O         -79.7932   25.9315  -77.2980 O.2       2 UNK        -0.5226 
     62 CA        -81.4198   26.4532  -75.6254 C.3       2 UNK         0.0269 
     63 CB        -82.8043   26.5231  -76.2878 C.3       2 UNK        -0.1926 
     64 N         -81.5727   26.1170  -74.2065 N.am      2 UNK        -0.4687 
     65 C         -80.5612   26.0523  -73.3300 C.2       1 UNK         0.5165 
     66 O         -79.3911   26.3030  -73.6251 O.2       1 UNK        -0.5079 
     67 H67       -80.1739   21.0932  -71.7159 H         1 UNK         0.0900 
     68 H68       -78.8881   21.6732  -72.7783 H         1 UNK         0.0900 
     69 H69       -78.9152   22.1537  -71.0801 H         1 UNK         0.0900 
     70 H70       -79.5116   24.3081  -70.9157 H         1 UNK         0.2959 
     71 H71       -81.9687   25.3398  -71.8611 H         1 UNK         0.1079 
     72 H72       -80.6718   26.1504  -69.8309 H         1 UNK         0.0837 
     73 H73       -79.5255   26.9097  -70.9008 H         1 UNK         0.0837 
     74 H74       -81.2114   30.2670  -70.0932 H         1 UNK         0.0685 
     75 H75       -80.2952   29.0785  -69.2019 H         1 UNK         0.0685 
     76 H76       -80.6069   30.5001  -72.6740 H         1 UNK         0.1434 
     77 H77       -76.3676   30.4371  -73.3582 H         1 UNK         0.1329 
     78 H78       -77.9777   28.8761  -69.7076 H         1 UNK         0.1335 
     79 H79       -75.1234   28.7152  -71.8420 H         1 UNK         0.0680 
     80 H80       -75.6625   28.5464  -70.1921 H         1 UNK         0.0680 
     81 H81       -72.6711   30.3665  -69.2784 H         1 UNK         0.1032 
     82 H82       -73.1056   28.8971  -70.0999 H         1 UNK         0.1032 
     83 H83       -71.9280   31.3955  -71.4176 H         1 UNK         0.0461 
     84 H84       -68.7755   29.1492  -71.6757 H         1 UNK         0.3453 
     85 H85       -70.0427   29.2905  -72.8707 H         1 UNK         0.3453 
     86 H86       -72.6128   30.6319  -73.3502 H         1 UNK         0.2984 
     87 H87       -74.2629   28.1176  -74.3382 H         1 UNK         0.0554 
     88 H88       -73.8890   30.4742  -74.9456 H         1 UNK         0.0847 
     89 H89       -73.6740   29.4821  -76.3701 H         1 UNK         0.0847 
     90 H90       -72.2638   30.1149  -75.5345 H         1 UNK         0.0847 
     91 H91       -73.2245   26.5471  -75.4474 H         1 UNK         0.3141 
     92 H92       -70.1240   26.1384  -76.9556 H         1 UNK         0.0743 
     93 H93       -69.2705   25.5232  -74.6948 H         1 UNK         0.0784 
     94 H94       -70.7711   24.6829  -74.3341 H         1 UNK         0.0784 
     95 H95       -69.7037   24.0891  -75.6088 H         1 UNK         0.0784 
     96 H96       -72.2085   24.2586  -76.2963 H         1 UNK         0.3213 
     97 H97       -73.2606   24.0905  -79.4528 H         1 UNK         0.0855 
     98 H98       -74.0846   23.3654  -76.5838 H         1 UNK         0.0814 
     99 H99       -72.8241   22.5718  -77.5347 H         1 UNK         0.0814 
    100 H100      -74.4992   22.4718  -78.0344 H         1 UNK         0.0814 
    101 H101      -75.3030   25.3253  -77.6564 H         1 UNK         0.3105 
    102 H102      -76.7691   27.1434  -80.1693 H         1 UNK         0.0547 
    103 H103      -78.9026   25.8694  -80.0201 H         1 UNK         0.0837 
    104 H104      -77.7655   25.0362  -81.0671 H         1 UNK         0.0837 
    105 H105      -78.0371   24.4507  -79.4311 H         1 UNK         0.0837 
    106 H106      -77.9042   26.2204  -77.7146 H         1 UNK         0.3020 
    107 H107      -76.0921   28.3993  -75.5530 H         1 UNK         0.1245 
    108 H108      -78.7177   28.5588  -74.9973 H         1 UNK         0.0781 
    109 H109      -78.8942   28.6083  -76.7232 H         1 UNK         0.0781 
    110 H110      -79.7994   31.1163  -74.8181 H         1 UNK         0.0836 
    111 H111      -78.5542   32.2749  -74.4234 H         1 UNK         0.0836 
    112 H112      -77.9828   26.4744  -74.8615 H         1 UNK         0.3022 
    113 H113      -75.8534   23.5979  -74.7446 H         1 UNK         0.0747 
    114 H114      -77.2489   25.3003  -72.6068 H         1 UNK         0.0793 
    115 H115      -76.8539   23.5883  -72.4625 H         1 UNK         0.0793 
    116 H116      -75.5735   24.7817  -72.5947 H         1 UNK         0.0793 
    117 H117      -78.6925   24.2610  -74.4079 H         1 UNK         0.3047 
    118 H118      -79.6234   23.2879  -77.6647 H         1 UNK         0.0822 
    119 H119      -79.4635   21.0229  -76.6964 H         1 UNK         0.0807 
    120 H120      -81.1050   21.6249  -76.5320 H         1 UNK         0.0807 
    121 H121      -80.0267   21.6005  -75.1376 H         1 UNK         0.0807 
    122 H122      -81.0589   23.9137  -75.2215 H         1 UNK         0.2946 
    123 H123      -80.9644   27.4441  -75.6810 H         1 UNK         0.1144 
    124 H124      -83.4346   27.2750  -75.8125 H         1 UNK         0.0793 
    125 H125      -83.3252   25.5661  -76.2384 H         1 UNK         0.0793 
    126 H126      -82.7188   26.7940  -77.3413 H         1 UNK         0.0793 
    127 H127      -82.5022   25.8694  -73.8982 H         1 UNK         0.2896 
@<TRIPOS>BOND
     1    1    2 1    
     2    1   67 1    
     3    1   68 1    
     4    1   69 1    
     5    2    3 2    
     6    2    4 am   BACKBONE|DICT|INTERRES
     7    4    5 1    
     8    4   70 1    
     9    5    6 1    
    10    5   65 1    
    11    5   71 1    
    12    6    7 1    
    13    6   72 1    
    14    6   73 1    
    15    7    8 1    
    16    8    9 1    
    17    8   74 1    
    18    8   75 1    
    19    9   10 ar   
    20    9   14 ar   
    21   10   11 ar   
    22   10   76 1    
    23   11   12 ar   
    24   11   48 1    
    25   12   13 ar   
    26   12   77 1    
    27   13   14 ar   
    28   13   15 1    
    29   14   78 1    
    30   15   16 1    
    31   15   79 1    
    32   15   80 1    
    33   16   17 1    
    34   17   18 1    
    35   17   81 1    
    36   17   82 1    
    37   18   19 1    
    38   18   22 1    
    39   18   83 1    
    40   19   20 am   BACKBONE|DICT|INTERRES
    41   19   21 2    
    42   20   84 1    
    43   20   85 1    
    44   22   23 am   BACKBONE|DICT|INTERRES
    45   22   86 1    
    46   23   24 2    
    47   23   25 1    
    48   25   26 1    
    49   25   27 1    
    50   25   87 1    
    51   26   88 1    
    52   26   89 1    
    53   26   90 1    
    54   27   28 am   BACKBONE|DICT|INTERRES
    55   27   91 1    
    56   28   29 2    
    57   28   30 1    
    58   30   31 1    
    59   30   32 1    
    60   30   92 1    
    61   31   93 1    
    62   31   94 1    
    63   31   95 1    
    64   32   33 am   BACKBONE|DICT|INTERRES
    65   32   96 1    
    66   33   34 2    
    67   33   35 1    
    68   35   36 1    
    69   35   37 1    
    70   35   97 1    
    71   36   98 1    
    72   36   99 1    
    73   36  100 1    
    74   37   38 am   BACKBONE|DICT|INTERRES
    75   37  101 1    
    76   38   39 2    
    77   38   40 1    
    78   40   41 1    
    79   40   42 1    
    80   40  102 1    
    81   41  103 1    
    82   41  104 1    
    83   41  105 1    
    84   42   43 am   BACKBONE|DICT|INTERRES
    85   42  106 1    
    86   43   44 2    
    87   43   45 1    
    88   45   46 1    
    89   45   49 1    
    90   45  107 1    
    91   46   47 1    
    92   46  108 1    
    93   46  109 1    
    94   47   48 1    
    95   48  110 1    
    96   48  111 1    
    97   49   50 am   BACKBONE|DICT|INTERRES
    98   49  112 1    
    99   50   51 2    
   100   50   52 1    
   101   52   53 1    
   102   52   54 1    
   103   52  113 1    
   104   53  114 1    
   105   53  115 1    
   106   53  116 1    
   107   54   55 am   BACKBONE|DICT|INTERRES
   108   54  117 1    
   109   55   56 2    
   110   55   57 1    
   111   57   58 1    
   112   57   59 1    
   113   57  118 1    
   114   58  119 1    
   115   58  120 1    
   116   58  121 1    
   117   59   60 am   BACKBONE|DICT|INTERRES
   118   59  122 1    
   119   60   61 2    
   120   60   62 1    
   121   62   63 1    
   122   62   64 1    
   123   62  123 1    
   124   63  124 1    
   125   63  125 1    
   126   63  126 1    
   127   64   65 am   BACKBONE|DICT|INTERRES
   128   64  127 1    
   129   65   66 2    
@<TRIPOS>SUBSTRUCTURE
     1 UNK         1 GROUP             0       ****    0 ROOT    
