@<TRIPOS>MOLECULE
3R135
127   129    1
SMALL
USER_CHARGES


@<TRIPOS>ATOM
      1 CA        -84.0415   27.0345  -72.8330 C.3       0 UNK        -0.1998 
      2 C         -83.2460   27.9644  -73.7370 C.2       0 UNK         0.4909 
      3 O         -83.8042   28.9167  -74.2833 O.2       0 UNK        -0.5240 
      4 N         -81.9497   27.6919  -73.9033 N.am      1 UNK        -0.4739 
      5 CA        -81.0201   28.4421  -74.7454 C.3       1 UNK         0.0864 
      6 C6        -80.5446   29.7767  -74.0964 C.3       11 UNK        -0.0881 
      7 S7        -79.7304   29.5906  -72.4685 S.3       11 UNK        -0.2682 
      8 C8        -77.9649   29.6769  -72.9287 C.3       11 UNK         0.0289 
      9 C9        -77.0686   28.9455  -71.9378 C.ar      11 UNK        -0.0687 
     10 C10       -77.3489   27.6246  -71.5735 C.ar      11 UNK        -0.0823 
     11 C11       -76.5070   26.9246  -70.7008 C.ar      11 UNK        -0.0830 
     12 C12       -75.3713   27.5648  -70.1954 C.ar      11 UNK        -0.1021 
     13 C13       -75.0755   28.8833  -70.5537 C.ar      11 UNK        -0.0753 
     14 C14       -75.9290   29.5696  -71.4230 C.ar      11 UNK        -0.0933 
     15 C15       -73.8311   29.5627  -70.0046 C.3       11 UNK         0.0166 
     16 S16       -72.4299   29.3626  -71.1483 S.3       11 UNK        -0.2615 
     17 C17       -71.8943   31.0928  -71.3731 C.3       11 UNK        -0.0865 
     18 CA        -72.7966   31.8989  -72.3457 C.3       10 UNK         0.0862 
     19 C         -72.3186   33.3775  -72.4457 C.2       10 UNK         0.5551 
     20 N         -71.9082   33.8695  -73.6084 N.am      10 UNK        -0.7319 
     21 O         -72.3253   34.0920  -71.4463 O.2       10 UNK        -0.5018 
     22 N         -72.9681   31.2127  -73.6380 N.am      10 UNK        -0.4509 
     23 C         -73.9741   31.4347  -74.4937 C.2       10 UNK         0.4899 
     24 O         -74.8851   32.2372  -74.2892 O.2       10 UNK        -0.4839 
     25 CA        -73.9619   30.6376  -75.8094 C.3       9 UNK         0.0222 
     26 CB        -73.3067   31.4609  -76.9300 C.3       9 UNK        -0.1966 
     27 N         -73.2883   29.3394  -75.7053 N.am      9 UNK        -0.4218 
     28 C         -73.8047   28.2686  -75.0889 C.2       9 UNK         0.5020 
     29 O         -74.9130   28.2532  -74.5545 O.2       9 UNK        -0.5274 
     30 CA        -72.9625   26.9825  -75.1232 C.3       8 UNK         0.0270 
     31 CB        -72.9461   26.2864  -73.7520 C.3       8 UNK        -0.1976 
     32 N         -73.4956   26.0687  -76.1354 N.am      8 UNK        -0.4313 
     33 C         -73.3596   26.2485  -77.4574 C.2       8 UNK         0.5041 
     34 O         -72.6521   27.1322  -77.9453 O.2       8 UNK        -0.5577 
     35 CA        -74.1742   25.3358  -78.3948 C.3       7 UNK         0.0284 
     36 CB        -73.4878   25.0995  -79.7582 C.3       7 UNK        -0.1958 
     37 N         -74.6156   24.0817  -77.7743 N.am      7 UNK        -0.4454 
     38 C         -73.8738   23.0086  -77.4696 C.2       7 UNK         0.5089 
     39 O         -72.6614   22.9265  -77.6738 O.2       7 UNK        -0.5125 
     40 CA        -74.6335   21.8260  -76.8312 C.3       6 UNK         0.0408 
     41 CB        -73.6873   20.7435  -76.2693 C.3       6 UNK        -0.1791 
     42 N         -75.6126   22.2285  -75.8110 N.am      6 UNK        -0.4762 
     43 C         -75.3674   22.9240  -74.6884 C.2       6 UNK         0.5007 
     44 O         -74.2615   23.3874  -74.4113 O.2       6 UNK        -0.5032 
     45 CA        -76.5474   23.1286  -73.7171 C.3       5 UNK         0.0783 
     46 C46       -76.3651   24.3740  -72.8109 C.3       11 UNK        -0.0857 
     47 S47       -77.6518   24.4751  -71.5222 S.3       11 UNK        -0.2512 
     48 C48       -76.8165   25.4943  -70.2599 C.3       11 UNK         0.0225 
     49 N         -77.8139   23.1774  -74.4532 N.am      5 UNK        -0.4615 
     50 C         -78.8580   22.3622  -74.2564 C.2       4 UNK         0.5053 
     51 O         -78.8323   21.3897  -73.5016 O.2       4 UNK        -0.5105 
     52 CA        -80.1617   22.6809  -75.0115 C.3       4 UNK         0.0263 
     53 CB        -81.2074   23.2657  -74.0467 C.3       4 UNK        -0.1981 
     54 N         -79.9630   23.6157  -76.1208 N.am      4 UNK        -0.4224 
     55 C         -79.5007   23.2646  -77.3295 C.2       3 UNK         0.4895 
     56 O         -79.2447   22.1043  -77.6523 O.2       3 UNK        -0.5091 
     57 CA        -79.2540   24.3953  -78.3458 C.3       3 UNK         0.0250 
     58 CB        -80.4715   24.5616  -79.2691 C.3       3 UNK        -0.1996 
     59 N         -78.9305   25.6889  -77.7351 N.am      3 UNK        -0.4254 
     60 C         -77.8580   25.9266  -76.9677 C.2       2 UNK         0.5004 
     61 O         -77.0223   25.0708  -76.6793 O.2       2 UNK        -0.5226 
     62 CA        -77.7185   27.3403  -76.3863 C.3       2 UNK         0.0269 
     63 CB        -76.9470   28.2507  -77.3538 C.3       2 UNK        -0.1926 
     64 N         -78.9933   27.9780  -76.0397 N.am      2 UNK        -0.4687 
     65 C         -79.8555   27.5105  -75.1261 C.2       1 UNK         0.5165 
     66 O         -79.7459   26.4054  -74.5855 O.2       1 UNK        -0.5079 
     67 H67       -84.4601   27.5929  -71.9962 H         1 UNK         0.0900 
     68 H68       -84.8635   26.5834  -73.3881 H         1 UNK         0.0900 
     69 H69       -83.4237   26.2319  -72.4301 H         1 UNK         0.0900 
     70 H70       -81.5278   26.8768  -73.4747 H         1 UNK         0.2959 
     71 H71       -81.5366   28.6793  -75.6784 H         1 UNK         0.1079 
     72 H72       -81.4073   30.4287  -73.9528 H         1 UNK         0.0837 
     73 H73       -79.8873   30.3273  -74.7715 H         1 UNK         0.0837 
     74 H74       -77.6770   30.7258  -73.0160 H         1 UNK         0.0685 
     75 H75       -77.8027   29.2333  -73.9099 H         1 UNK         0.0685 
     76 H76       -78.2291   27.1445  -71.9785 H         1 UNK         0.1434 
     77 H77       -74.7118   27.0364  -69.5202 H         1 UNK         0.1329 
     78 H78       -75.6951   30.5835  -71.7150 H         1 UNK         0.1335 
     79 H79       -73.5615   29.1388  -69.0361 H         1 UNK         0.0680 
     80 H80       -74.0385   30.6184  -69.8253 H         1 UNK         0.0680 
     81 H81       -70.8665   31.0787  -71.7405 H         1 UNK         0.1032 
     82 H82       -71.8524   31.5738  -70.3936 H         1 UNK         0.1032 
     83 H83       -73.7848   31.9549  -71.8872 H         1 UNK         0.0461 
     84 H84       -71.9023   33.2912  -74.4325 H         1 UNK         0.3453 
     85 H85       -71.6043   34.8291  -73.6604 H         1 UNK         0.3453 
     86 H86       -72.2694   30.5250  -73.8749 H         1 UNK         0.2984 
     87 H87       -75.0018   30.4604  -76.0885 H         1 UNK         0.0554 
     88 H88       -73.8025   32.4258  -77.0467 H         1 UNK         0.0847 
     89 H89       -73.3738   30.9474  -77.8895 H         1 UNK         0.0847 
     90 H90       -72.2533   31.6580  -76.7273 H         1 UNK         0.0847 
     91 H91       -72.4023   29.2414  -76.1816 H         1 UNK         0.3141 
     92 H92       -71.9315   27.2334  -75.3818 H         1 UNK         0.0743 
     93 H93       -72.5155   26.9374  -72.9910 H         1 UNK         0.0784 
     94 H94       -72.3504   25.3739  -73.7754 H         1 UNK         0.0784 
     95 H95       -73.9501   26.0231  -73.4191 H         1 UNK         0.0784 
     96 H96       -74.0822   25.3144  -75.8026 H         1 UNK         0.3213 
     97 H97       -75.0926   25.8853  -78.6029 H         1 UNK         0.0855 
     98 H98       -72.5023   24.6474  -79.6457 H         1 UNK         0.0814 
     99 H99       -73.3488   26.0404  -80.2920 H         1 UNK         0.0814 
    100 H100      -74.0860   24.4516  -80.3987 H         1 UNK         0.0814 
    101 H101      -75.5867   24.0867  -77.4690 H         1 UNK         0.3105 
    102 H102      -75.2084   21.3697  -77.6383 H         1 UNK         0.0547 
    103 H103      -74.2449   19.9024  -75.8580 H         1 UNK         0.0837 
    104 H104      -73.0445   21.1379  -75.4816 H         1 UNK         0.0837 
    105 H105      -73.0373   20.3474  -77.0504 H         1 UNK         0.0837 
    106 H106      -76.5638   21.9235  -75.9686 H         1 UNK         0.3020 
    107 H107      -76.5284   22.2491  -73.0697 H         1 UNK         0.1245 
    108 H108      -76.3867   25.2913  -73.4032 H         1 UNK         0.0781 
    109 H109      -75.3950   24.3481  -72.3112 H         1 UNK         0.0781 
    110 H110      -75.9020   24.9843  -69.9527 H         1 UNK         0.0836 
    111 H111      -77.4542   25.5394  -69.3764 H         1 UNK         0.0836 
    112 H112      -77.8917   23.9283  -75.1290 H         1 UNK         0.3022 
    113 H113      -80.5529   21.7407  -75.4064 H         1 UNK         0.0747 
    114 H114      -82.1429   23.4898  -74.5593 H         1 UNK         0.0793 
    115 H115      -81.4369   22.5594  -73.2476 H         1 UNK         0.0793 
    116 H116      -80.8525   24.1825  -73.5746 H         1 UNK         0.0793 
    117 H117      -80.1017   24.5971  -75.9127 H         1 UNK         0.3047 
    118 H118      -78.3988   24.0982  -78.9568 H         1 UNK         0.0822 
    119 H119      -80.2775   25.2913  -80.0555 H         1 UNK         0.0807 
    120 H120      -81.3553   24.8862  -78.7184 H         1 UNK         0.0807 
    121 H121      -80.7211   23.6194  -79.7596 H         1 UNK         0.0807 
    122 H122      -79.5694   26.4511  -77.9099 H         1 UNK         0.2946 
    123 H123      -77.1417   27.2471  -75.4633 H         1 UNK         0.1144 
    124 H124      -76.8323   29.2533  -76.9435 H         1 UNK         0.0793 
    125 H125      -77.4479   28.3382  -78.3188 H         1 UNK         0.0793 
    126 H126      -75.9438   27.8669  -77.5360 H         1 UNK         0.0793 
    127 H127      -79.1675   28.8813  -76.4567 H         1 UNK         0.2896 
@<TRIPOS>BOND
     1    1    2 1    
     2    1   67 1    
     3    1   68 1    
     4    1   69 1    
     5    2    3 2    
     6    2    4 am   BACKBONE|DICT|INTERRES
     7    4    5 1    
     8    4   70 1    
     9    5    6 1    
    10    5   65 1    
    11    5   71 1    
    12    6    7 1    
    13    6   72 1    
    14    6   73 1    
    15    7    8 1    
    16    8    9 1    
    17    8   74 1    
    18    8   75 1    
    19    9   10 ar   
    20    9   14 ar   
    21   10   11 ar   
    22   10   76 1    
    23   11   12 ar   
    24   11   48 1    
    25   12   13 ar   
    26   12   77 1    
    27   13   14 ar   
    28   13   15 1    
    29   14   78 1    
    30   15   16 1    
    31   15   79 1    
    32   15   80 1    
    33   16   17 1    
    34   17   18 1    
    35   17   81 1    
    36   17   82 1    
    37   18   19 1    
    38   18   22 1    
    39   18   83 1    
    40   19   20 am   BACKBONE|DICT|INTERRES
    41   19   21 2    
    42   20   84 1    
    43   20   85 1    
    44   22   23 am   BACKBONE|DICT|INTERRES
    45   22   86 1    
    46   23   24 2    
    47   23   25 1    
    48   25   26 1    
    49   25   27 1    
    50   25   87 1    
    51   26   88 1    
    52   26   89 1    
    53   26   90 1    
    54   27   28 am   BACKBONE|DICT|INTERRES
    55   27   91 1    
    56   28   29 2    
    57   28   30 1    
    58   30   31 1    
    59   30   32 1    
    60   30   92 1    
    61   31   93 1    
    62   31   94 1    
    63   31   95 1    
    64   32   33 am   BACKBONE|DICT|INTERRES
    65   32   96 1    
    66   33   34 2    
    67   33   35 1    
    68   35   36 1    
    69   35   37 1    
    70   35   97 1    
    71   36   98 1    
    72   36   99 1    
    73   36  100 1    
    74   37   38 am   BACKBONE|DICT|INTERRES
    75   37  101 1    
    76   38   39 2    
    77   38   40 1    
    78   40   41 1    
    79   40   42 1    
    80   40  102 1    
    81   41  103 1    
    82   41  104 1    
    83   41  105 1    
    84   42   43 am   BACKBONE|DICT|INTERRES
    85   42  106 1    
    86   43   44 2    
    87   43   45 1    
    88   45   46 1    
    89   45   49 1    
    90   45  107 1    
    91   46   47 1    
    92   46  108 1    
    93   46  109 1    
    94   47   48 1    
    95   48  110 1    
    96   48  111 1    
    97   49   50 am   BACKBONE|DICT|INTERRES
    98   49  112 1    
    99   50   51 2    
   100   50   52 1    
   101   52   53 1    
   102   52   54 1    
   103   52  113 1    
   104   53  114 1    
   105   53  115 1    
   106   53  116 1    
   107   54   55 am   BACKBONE|DICT|INTERRES
   108   54  117 1    
   109   55   56 2    
   110   55   57 1    
   111   57   58 1    
   112   57   59 1    
   113   57  118 1    
   114   58  119 1    
   115   58  120 1    
   116   58  121 1    
   117   59   60 am   BACKBONE|DICT|INTERRES
   118   59  122 1    
   119   60   61 2    
   120   60   62 1    
   121   62   63 1    
   122   62   64 1    
   123   62  123 1    
   124   63  124 1    
   125   63  125 1    
   126   63  126 1    
   127   64   65 am   BACKBONE|DICT|INTERRES
   128   64  127 1    
   129   65   66 2    
@<TRIPOS>SUBSTRUCTURE
     1 UNK         1 GROUP             0       ****    0 ROOT    
