@<TRIPOS>MOLECULE
3R135
127   129    1
SMALL
USER_CHARGES


@<TRIPOS>ATOM
      1 CA        -75.5416   22.2620  -71.5740 C.3       0 UNK        -0.1998 
      2 C         -76.7433   22.9141  -72.2397 C.2       0 UNK         0.4909 
      3 O         -76.8982   22.8016  -73.4557 O.2       0 UNK        -0.5240 
      4 N         -77.5920   23.5906  -71.4503 N.am      1 UNK        -0.4739 
      5 CA        -78.7987   24.3392  -71.8393 C.3       1 UNK         0.0864 
      6 C6        -78.4934   25.5096  -72.8189 C.3       11 UNK        -0.0881 
      7 S7        -79.9304   26.5345  -73.2858 S.3       11 UNK        -0.2682 
      8 C8        -79.9841   27.7370  -71.9234 C.3       11 UNK         0.0289 
      9 C9        -78.8950   28.7922  -72.0416 C.ar      11 UNK        -0.0687 
     10 C10       -78.9939   29.7886  -73.0173 C.ar      11 UNK        -0.0823 
     11 C11       -78.0257   30.7922  -73.1021 C.ar      11 UNK        -0.0830 
     12 C12       -76.9735   30.8119  -72.1850 C.ar      11 UNK        -0.1021 
     13 C13       -76.8374   29.7993  -71.2336 C.ar      11 UNK        -0.0753 
     14 C14       -77.8050   28.7912  -71.1641 C.ar      11 UNK        -0.0933 
     15 C15       -75.6522   29.8018  -70.2781 C.3       11 UNK         0.0166 
     16 S16       -74.1043   29.3068  -71.1074 S.3       11 UNK        -0.2615 
     17 C17       -73.4721   30.8901  -71.7749 C.3       11 UNK        -0.0865 
     18 CA        -73.5733   31.0049  -73.3283 C.3       10 UNK         0.0862 
     19 C         -73.1896   32.4128  -73.8811 C.2       10 UNK         0.5551 
     20 N         -73.5939   33.4889  -73.2179 N.am      10 UNK        -0.7319 
     21 O         -72.5655   32.5530  -74.9319 O.2       10 UNK        -0.5018 
     22 N         -72.9062   29.9023  -74.0326 N.am      10 UNK        -0.4509 
     23 C         -71.5983   29.6134  -74.0273 C.2       10 UNK         0.4899 
     24 O         -70.7503   30.2367  -73.3854 O.2       10 UNK        -0.4839 
     25 CA        -71.1827   28.4112  -74.8962 C.3       9 UNK         0.0222 
     26 CB        -69.7363   27.9357  -74.6419 C.3       9 UNK        -0.1966 
     27 N         -72.1414   27.3067  -74.7880 N.am      9 UNK        -0.4218 
     28 C         -72.4384   26.5760  -73.7014 C.2       9 UNK         0.5020 
     29 O         -71.8385   26.6519  -72.6284 O.2       9 UNK        -0.5274 
     30 CA        -73.6200   25.5944  -73.8233 C.3       8 UNK         0.0270 
     31 CB        -74.8550   26.1603  -73.1091 C.3       8 UNK        -0.1976 
     32 N         -73.9829   25.2823  -75.2077 N.am      8 UNK        -0.4313 
     33 C         -73.2378   24.5458  -76.0430 C.2       8 UNK         0.5041 
     34 O         -72.2031   23.9651  -75.7136 O.2       8 UNK        -0.5577 
     35 CA        -73.7064   24.4855  -77.5040 C.3       7 UNK         0.0284 
     36 CB        -74.7358   23.3613  -77.6916 C.3       7 UNK        -0.1958 
     37 N         -74.2631   25.7670  -77.9541 N.am      7 UNK        -0.4454 
     38 C         -73.5214   26.8527  -78.2215 C.2       7 UNK         0.5089 
     39 O         -72.2941   26.8777  -78.1377 O.2       7 UNK        -0.5125 
     40 CA        -74.2653   28.1360  -78.6313 C.3       6 UNK         0.0408 
     41 CB        -74.4921   28.1621  -80.1508 C.3       6 UNK        -0.1791 
     42 N         -75.5456   28.3189  -77.9440 N.am      6 UNK        -0.4762 
     43 C         -75.6812   28.5681  -76.6323 C.2       6 UNK         0.5007 
     44 O         -74.7315   28.6505  -75.8521 O.2       6 UNK        -0.5032 
     45 CA        -77.1297   28.6860  -76.1024 C.3       5 UNK         0.0783 
     46 C46       -77.7380   30.0861  -76.3846 C.3       11 UNK        -0.0857 
     47 S47       -76.9163   31.4753  -75.5308 S.3       11 UNK        -0.2512 
     48 C48       -78.0930   31.8492  -74.1911 C.3       11 UNK         0.0225 
     49 N         -78.0125   27.6425  -76.6461 N.am      5 UNK        -0.4615 
     50 C         -77.7919   26.3219  -76.6344 C.2       4 UNK         0.5053 
     51 O         -76.8106   25.7904  -76.1112 O.2       4 UNK        -0.5105 
     52 CA        -78.8503   25.4687  -77.3434 C.3       4 UNK         0.0263 
     53 CB        -78.3191   24.0907  -77.7792 C.3       4 UNK        -0.1981 
     54 N         -79.9968   25.2878  -76.4607 N.am      4 UNK        -0.4224 
     55 C         -81.2627   25.1277  -76.8680 C.2       3 UNK         0.4895 
     56 O         -81.6207   25.2282  -78.0434 O.2       3 UNK        -0.5091 
     57 CA        -82.2887   24.7635  -75.7736 C.3       3 UNK         0.0250 
     58 CB        -83.6599   24.3435  -76.3447 C.3       3 UNK        -0.1996 
     59 N         -81.7788   23.7439  -74.8455 N.am      3 UNK        -0.4254 
     60 C         -81.3266   22.5136  -75.1422 C.2       2 UNK         0.5004 
     61 O         -81.3689   22.0190  -76.2699 O.2       2 UNK        -0.5226 
     62 CA        -80.6790   21.7257  -73.9836 C.3       2 UNK         0.0269 
     63 CB        -79.9962   20.4277  -74.4543 C.3       2 UNK        -0.1926 
     64 N         -79.6884   22.5452  -73.2804 N.am      2 UNK        -0.4687 
     65 C         -79.9561   23.4366  -72.3208 C.2       1 UNK         0.5165 
     66 O         -81.0832   23.5900  -71.8480 O.2       1 UNK        -0.5079 
     67 H67       -74.6202   22.6477  -72.0094 H         1 UNK         0.0900 
     68 H68       -75.5151   22.4513  -70.5012 H         1 UNK         0.0900 
     69 H69       -75.5668   21.1839  -71.7292 H         1 UNK         0.0900 
     70 H70       -77.4057   23.5992  -70.4565 H         1 UNK         0.2959 
     71 H71       -79.1543   24.7923  -70.9124 H         1 UNK         0.1079 
     72 H72       -78.0593   25.1263  -73.7427 H         1 UNK         0.0837 
     73 H73       -77.7353   26.1612  -72.3852 H         1 UNK         0.0837 
     74 H74       -79.9205   27.2127  -70.9689 H         1 UNK         0.0685 
     75 H75       -80.9575   28.2296  -71.9330 H         1 UNK         0.0685 
     76 H76       -79.8234   29.7760  -73.7112 H         1 UNK         0.1434 
     77 H77       -76.2435   31.6058  -72.2332 H         1 UNK         0.1329 
     78 H78       -77.7165   28.0128  -70.4188 H         1 UNK         0.1335 
     79 H79       -75.5429   30.7839  -69.8165 H         1 UNK         0.0680 
     80 H80       -75.8338   29.1059  -69.4577 H         1 UNK         0.0680 
     81 H81       -72.4334   30.9968  -71.4590 H         1 UNK         0.1032 
     82 H82       -74.0044   31.7055  -71.2864 H         1 UNK         0.1032 
     83 H83       -74.6176   30.8819  -73.6069 H         1 UNK         0.0461 
     84 H84       -73.3603   34.3981  -73.5855 H         1 UNK         0.3453 
     85 H85       -74.1288   33.4204  -72.3679 H         1 UNK         0.3453 
     86 H86       -73.5167   29.3543  -74.6343 H         1 UNK         0.2984 
     87 H87       -71.2371   28.7522  -75.9311 H         1 UNK         0.0554 
     88 H88       -69.0219   28.7289  -74.8652 H         1 UNK         0.0847 
     89 H89       -69.4825   27.0839  -75.2728 H         1 UNK         0.0847 
     90 H90       -69.5796   27.6439  -73.6032 H         1 UNK         0.0847 
     91 H91       -72.7239   27.1648  -75.6021 H         1 UNK         0.3141 
     92 H92       -73.3315   24.6642  -73.3295 H         1 UNK         0.0743 
     93 H93       -75.6881   25.4661  -73.1830 H         1 UNK         0.0784 
     94 H94       -74.6566   26.3247  -72.0492 H         1 UNK         0.0784 
     95 H95       -75.1718   27.1135  -73.5348 H         1 UNK         0.0784 
     96 H96       -74.8644   25.6573  -75.5481 H         1 UNK         0.3213 
     97 H97       -72.8379   24.2548  -78.1254 H         1 UNK         0.0855 
     98 H98       -75.5896   23.4831  -77.0253 H         1 UNK         0.0814 
     99 H99       -74.2912   22.3911  -77.4661 H         1 UNK         0.0814 
    100 H100      -75.1022   23.3186  -78.7172 H         1 UNK         0.0814 
    101 H101      -75.2693   25.8457  -77.9872 H         1 UNK         0.3105 
    102 H102      -73.6259   28.9826  -78.3712 H         1 UNK         0.0547 
    103 H103      -75.1473   27.3539  -80.4781 H         1 UNK         0.0837 
    104 H104      -73.5484   28.0527  -80.6873 H         1 UNK         0.0837 
    105 H105      -74.9352   29.1054  -80.4705 H         1 UNK         0.0837 
    106 H106      -76.3803   28.2569  -78.5089 H         1 UNK         0.3020 
    107 H107      -77.0880   28.5353  -75.0208 H         1 UNK         0.1245 
    108 H108      -78.7926   30.0909  -76.1054 H         1 UNK         0.0781 
    109 H109      -77.7234   30.2983  -77.4554 H         1 UNK         0.0781 
    110 H110      -79.1035   31.9399  -74.5926 H         1 UNK         0.0836 
    111 H111      -77.8465   32.8239  -73.7672 H         1 UNK         0.0836 
    112 H112      -78.8617   27.9724  -77.0815 H         1 UNK         0.3022 
    113 H113      -79.1581   26.0105  -78.2406 H         1 UNK         0.0747 
    114 H114      -78.0055   23.4907  -76.9237 H         1 UNK         0.0793 
    115 H115      -79.0804   23.5249  -78.3165 H         1 UNK         0.0793 
    116 H116      -77.4656   24.1966  -78.4486 H         1 UNK         0.0793 
    117 H117      -79.7931   25.2509  -75.4704 H         1 UNK         0.3047 
    118 H118      -82.4399   25.6698  -75.1851 H         1 UNK         0.0822 
    119 H119      -84.3685   24.1166  -75.5483 H         1 UNK         0.0807 
    120 H120      -83.5803   23.4633  -76.9837 H         1 UNK         0.0807 
    121 H121      -84.0946   25.1431  -76.9457 H         1 UNK         0.0807 
    122 H122      -81.7009   24.0348  -73.8774 H         1 UNK         0.2946 
    123 H123      -81.4807   21.4520  -73.2936 H         1 UNK         0.1144 
    124 H124      -79.5702   19.8776  -73.6151 H         1 UNK         0.0793 
    125 H125      -79.1930   20.6306  -75.1641 H         1 UNK         0.0793 
    126 H126      -80.7094   19.7645  -74.9458 H         1 UNK         0.0793 
    127 H127      -78.7259   22.4998  -73.6098 H         1 UNK         0.2896 
@<TRIPOS>BOND
     1    1    2 1    
     2    1   67 1    
     3    1   68 1    
     4    1   69 1    
     5    2    3 2    
     6    2    4 am   BACKBONE|DICT|INTERRES
     7    4    5 1    
     8    4   70 1    
     9    5    6 1    
    10    5   65 1    
    11    5   71 1    
    12    6    7 1    
    13    6   72 1    
    14    6   73 1    
    15    7    8 1    
    16    8    9 1    
    17    8   74 1    
    18    8   75 1    
    19    9   10 ar   
    20    9   14 ar   
    21   10   11 ar   
    22   10   76 1    
    23   11   12 ar   
    24   11   48 1    
    25   12   13 ar   
    26   12   77 1    
    27   13   14 ar   
    28   13   15 1    
    29   14   78 1    
    30   15   16 1    
    31   15   79 1    
    32   15   80 1    
    33   16   17 1    
    34   17   18 1    
    35   17   81 1    
    36   17   82 1    
    37   18   19 1    
    38   18   22 1    
    39   18   83 1    
    40   19   20 am   BACKBONE|DICT|INTERRES
    41   19   21 2    
    42   20   84 1    
    43   20   85 1    
    44   22   23 am   BACKBONE|DICT|INTERRES
    45   22   86 1    
    46   23   24 2    
    47   23   25 1    
    48   25   26 1    
    49   25   27 1    
    50   25   87 1    
    51   26   88 1    
    52   26   89 1    
    53   26   90 1    
    54   27   28 am   BACKBONE|DICT|INTERRES
    55   27   91 1    
    56   28   29 2    
    57   28   30 1    
    58   30   31 1    
    59   30   32 1    
    60   30   92 1    
    61   31   93 1    
    62   31   94 1    
    63   31   95 1    
    64   32   33 am   BACKBONE|DICT|INTERRES
    65   32   96 1    
    66   33   34 2    
    67   33   35 1    
    68   35   36 1    
    69   35   37 1    
    70   35   97 1    
    71   36   98 1    
    72   36   99 1    
    73   36  100 1    
    74   37   38 am   BACKBONE|DICT|INTERRES
    75   37  101 1    
    76   38   39 2    
    77   38   40 1    
    78   40   41 1    
    79   40   42 1    
    80   40  102 1    
    81   41  103 1    
    82   41  104 1    
    83   41  105 1    
    84   42   43 am   BACKBONE|DICT|INTERRES
    85   42  106 1    
    86   43   44 2    
    87   43   45 1    
    88   45   46 1    
    89   45   49 1    
    90   45  107 1    
    91   46   47 1    
    92   46  108 1    
    93   46  109 1    
    94   47   48 1    
    95   48  110 1    
    96   48  111 1    
    97   49   50 am   BACKBONE|DICT|INTERRES
    98   49  112 1    
    99   50   51 2    
   100   50   52 1    
   101   52   53 1    
   102   52   54 1    
   103   52  113 1    
   104   53  114 1    
   105   53  115 1    
   106   53  116 1    
   107   54   55 am   BACKBONE|DICT|INTERRES
   108   54  117 1    
   109   55   56 2    
   110   55   57 1    
   111   57   58 1    
   112   57   59 1    
   113   57  118 1    
   114   58  119 1    
   115   58  120 1    
   116   58  121 1    
   117   59   60 am   BACKBONE|DICT|INTERRES
   118   59  122 1    
   119   60   61 2    
   120   60   62 1    
   121   62   63 1    
   122   62   64 1    
   123   62  123 1    
   124   63  124 1    
   125   63  125 1    
   126   63  126 1    
   127   64   65 am   BACKBONE|DICT|INTERRES
   128   64  127 1    
   129   65   66 2    
@<TRIPOS>SUBSTRUCTURE
     1 UNK         1 GROUP             0       ****    0 ROOT    
