@<TRIPOS>MOLECULE
3R135
127   129    1
SMALL
USER_CHARGES


@<TRIPOS>ATOM
      1 CA        -81.6379   26.5415  -70.9842 C.3       0 UNK        -0.1998 
      2 C         -82.0713   26.9303  -72.3901 C.2       0 UNK         0.4909 
      3 O         -83.1111   27.5682  -72.5567 O.2       0 UNK        -0.5240 
      4 N         -81.2808   26.5571  -73.4011 N.am      1 UNK        -0.4739 
      5 CA        -81.5272   26.8320  -74.8139 C.3       1 UNK         0.0864 
      6 C6        -81.1042   28.2682  -75.2346 C.3       11 UNK        -0.0881 
      7 S7        -79.3184   28.6250  -75.0588 S.3       11 UNK        -0.2682 
      8 C8        -79.2621   29.4201  -73.4225 C.3       11 UNK         0.0289 
      9 C9        -77.9944   29.0283  -72.6820 C.ar      11 UNK        -0.0687 
     10 C10       -77.8468   27.7248  -72.2033 C.ar      11 UNK        -0.0823 
     11 C11       -76.6740   27.3305  -71.5541 C.ar      11 UNK        -0.0830 
     12 C12       -75.6497   28.2629  -71.3611 C.ar      11 UNK        -0.1021 
     13 C13       -75.7919   29.5758  -71.8242 C.ar      11 UNK        -0.0753 
     14 C14       -76.9669   29.9532  -72.4828 C.ar      11 UNK        -0.0933 
     15 C15       -74.6797   30.5915  -71.6194 C.3       11 UNK         0.0166 
     16 S16       -73.8780   31.0094  -73.1961 S.3       11 UNK        -0.2615 
     17 C17       -72.6049   32.1951  -72.6370 C.3       11 UNK        -0.0865 
     18 CA        -71.1617   31.6351  -72.7301 C.3       10 UNK         0.0862 
     19 C         -70.8531   30.6062  -71.6006 C.2       10 UNK         0.5551 
     20 N         -70.4980   29.3614  -71.8975 N.am      10 UNK        -0.7319 
     21 O         -70.9281   30.9536  -70.4246 O.2       10 UNK        -0.5018 
     22 N         -70.8674   31.1742  -74.0931 N.am      10 UNK        -0.4509 
     23 C         -69.6479   31.0257  -74.6197 C.2       10 UNK         0.4899 
     24 O         -68.6106   31.3722  -74.0520 O.2       10 UNK        -0.4839 
     25 CA        -69.5888   30.3732  -76.0165 C.3       9 UNK         0.0222 
     26 CB        -68.2008   29.7758  -76.3307 C.3       9 UNK        -0.1966 
     27 N         -70.6408   29.3704  -76.2478 N.am      9 UNK        -0.4218 
     28 C         -70.8840   28.2607  -75.5359 C.2       9 UNK         0.5020 
     29 O         -70.2893   27.9680  -74.4965 O.2       9 UNK        -0.5274 
     30 CA        -71.9896   27.3333  -76.0771 C.3       8 UNK         0.0270 
     31 CB        -71.9110   25.9216  -75.4654 C.3       8 UNK        -0.1976 
     32 N         -73.3390   27.8633  -75.8669 N.am      8 UNK        -0.4313 
     33 C         -73.8801   28.9182  -76.4894 C.2       8 UNK         0.5041 
     34 O         -73.2685   29.6236  -77.2962 O.2       8 UNK        -0.5577 
     35 CA        -75.3650   29.1896  -76.1748 C.3       7 UNK         0.0284 
     36 CB        -75.8940   30.4819  -76.8293 C.3       7 UNK        -0.1958 
     37 N         -76.2266   28.0483  -76.5136 N.am      7 UNK        -0.4454 
     38 C         -76.3574   27.4364  -77.7031 C.2       7 UNK         0.5089 
     39 O         -75.7690   27.7815  -78.7290 O.2       7 UNK        -0.5125 
     40 CA        -77.3184   26.2265  -77.7403 C.3       6 UNK         0.0408 
     41 CB        -77.1487   25.3695  -79.0163 C.3       6 UNK        -0.1791 
     42 N         -77.2315   25.4041  -76.5225 N.am      6 UNK        -0.4762 
     43 C         -76.1456   24.7314  -76.1031 C.2       6 UNK         0.5007 
     44 O         -75.1361   24.5643  -76.7865 O.2       6 UNK        -0.5032 
     45 CA        -76.1318   24.2430  -74.6459 C.3       5 UNK         0.0783 
     46 C46       -75.5674   25.3907  -73.7686 C.3       11 UNK        -0.0857 
     47 S47       -75.2382   24.9656  -72.0239 S.3       11 UNK        -0.2512 
     48 C48       -76.5157   25.8853  -71.0967 C.3       11 UNK         0.0225 
     49 N         -77.4549   23.7777  -74.2099 N.am      5 UNK        -0.4615 
     50 C         -77.6546   22.6662  -73.4888 C.2       4 UNK         0.5053 
     51 O         -76.7623   21.8792  -73.1716 O.2       4 UNK        -0.5105 
     52 CA        -79.0908   22.3825  -73.0314 C.3       4 UNK         0.0263 
     53 CB        -79.5718   23.4402  -72.0237 C.3       4 UNK        -0.1981 
     54 N         -80.0111   22.3319  -74.1662 N.am      4 UNK        -0.4224 
     55 C         -80.4512   21.1996  -74.7340 C.2       3 UNK         0.4895 
     56 O         -80.0918   20.0739  -74.3864 O.2       3 UNK        -0.5091 
     57 CA        -81.4956   21.3247  -75.8592 C.3       3 UNK         0.0250 
     58 CB        -82.8977   20.9875  -75.3250 C.3       3 UNK        -0.1996 
     59 N         -81.5315   22.6507  -76.4784 N.am      3 UNK        -0.4254 
     60 C         -80.6244   23.0995  -77.3549 C.2       2 UNK         0.5004 
     61 O         -79.6778   22.4305  -77.7686 O.2       2 UNK        -0.5226 
     62 CA        -80.7917   24.5496  -77.8370 C.3       2 UNK         0.0269 
     63 CB        -81.6441   24.5971  -79.1149 C.3       2 UNK        -0.1926 
     64 N         -81.3518   25.4742  -76.8428 N.am      2 UNK        -0.4687 
     65 C         -80.8260   25.7405  -75.6388 C.2       1 UNK         0.5165 
     66 O         -79.8253   25.1730  -75.1789 O.2       1 UNK        -0.5079 
     67 H67       -82.3168   25.7932  -70.5761 H         1 UNK         0.0900 
     68 H68       -80.6280   26.1341  -70.9631 H         1 UNK         0.0900 
     69 H69       -81.6596   27.4137  -70.3314 H         1 UNK         0.0900 
     70 H70       -80.4571   25.9950  -73.2428 H         1 UNK         0.2959 
     71 H71       -82.5997   26.7243  -74.9923 H         1 UNK         0.1079 
     72 H72       -81.6762   29.0045  -74.6679 H         1 UNK         0.0837 
     73 H73       -81.3739   28.4421  -76.2777 H         1 UNK         0.0837 
     74 H74       -80.1242   29.1285  -72.8228 H         1 UNK         0.0685 
     75 H75       -79.3267   30.5017  -73.5490 H         1 UNK         0.0685 
     76 H76       -78.6377   27.0086  -72.3676 H         1 UNK         0.1434 
     77 H77       -74.7379   27.9594  -70.8645 H         1 UNK         0.1329 
     78 H78       -77.0715   30.9645  -72.8516 H         1 UNK         0.1335 
     79 H79       -73.9308   30.2094  -70.9238 H         1 UNK         0.0680 
     80 H80       -75.0933   31.4955  -71.1700 H         1 UNK         0.0680 
     81 H81       -72.8251   32.5424  -71.6256 H         1 UNK         0.1032 
     82 H82       -72.6854   33.0828  -73.2662 H         1 UNK         0.1032 
     83 H83       -70.4924   32.4749  -72.5332 H         1 UNK         0.0461 
     84 H84       -70.2982   28.7180  -71.1491 H         1 UNK         0.3453 
     85 H85       -70.4276   29.0463  -72.8600 H         1 UNK         0.3453 
     86 H86       -71.6637   30.8448  -74.6191 H         1 UNK         0.2984 
     87 H87       -69.7728   31.1759  -76.7318 H         1 UNK         0.0554 
     88 H88       -67.4245   30.5408  -76.2896 H         1 UNK         0.0847 
     89 H89       -68.1716   29.3423  -77.3303 H         1 UNK         0.0847 
     90 H90       -67.9271   28.9961  -75.6188 H         1 UNK         0.0847 
     91 H91       -71.2938   29.5703  -77.0021 H         1 UNK         0.3141 
     92 H92       -71.8311   27.2332  -77.1531 H         1 UNK         0.0743 
     93 H93       -70.9217   25.4871  -75.6152 H         1 UNK         0.0784 
     94 H94       -72.6299   25.2462  -75.9290 H         1 UNK         0.0784 
     95 H95       -72.1010   25.9326  -74.3913 H         1 UNK         0.0784 
     96 H96       -73.9114   27.3634  -75.2051 H         1 UNK         0.3213 
     97 H97       -75.4386   29.3189  -75.0941 H         1 UNK         0.0855 
     98 H98       -75.8488   30.4344  -77.9177 H         1 UNK         0.0814 
     99 H99       -75.3045   31.3442  -76.5152 H         1 UNK         0.0814 
    100 H100      -76.9281   30.6742  -76.5430 H         1 UNK         0.0814 
    101 H101      -76.8003   27.7027  -75.7573 H         1 UNK         0.3105 
    102 H102      -78.3239   26.6488  -77.7505 H         1 UNK         0.0547 
    103 H103      -77.7401   24.4555  -78.9784 H         1 UNK         0.0837 
    104 H104      -76.1099   25.0780  -79.1735 H         1 UNK         0.0837 
    105 H105      -77.4613   25.9262  -79.9002 H         1 UNK         0.0837 
    106 H106      -78.0416   25.4558  -75.9138 H         1 UNK         0.3020 
    107 H107      -75.4234   23.4115  -74.6151 H         1 UNK         0.1245 
    108 H108      -76.2200   26.2590  -73.8362 H         1 UNK         0.0781 
    109 H109      -74.6073   25.7215  -74.1661 H         1 UNK         0.0781 
    110 H110      -76.2602   25.8707  -70.0364 H         1 UNK         0.0836 
    111 H111      -77.4600   25.3492  -71.1863 H         1 UNK         0.0836 
    112 H112      -78.2575   24.3361  -74.4787 H         1 UNK         0.3022 
    113 H113      -79.0896   21.4214  -72.5122 H         1 UNK         0.0747 
    114 H114      -80.5951   23.2447  -71.7024 H         1 UNK         0.0793 
    115 H115      -78.9474   23.4319  -71.1296 H         1 UNK         0.0793 
    116 H116      -79.5367   24.4456  -72.4394 H         1 UNK         0.0793 
    117 H117      -80.2978   23.2177  -74.5623 H         1 UNK         0.3047 
    118 H118      -81.2377   20.5905  -76.6259 H         1 UNK         0.0822 
    119 H119      -83.6410   21.0026  -76.1224 H         1 UNK         0.0807 
    120 H120      -83.2167   21.6894  -74.5533 H         1 UNK         0.0807 
    121 H121      -82.9186   19.9891  -74.8854 H         1 UNK         0.0807 
    122 H122      -82.2843   23.2666  -76.2068 H         1 UNK         0.2946 
    123 H123      -79.7971   24.9101  -78.0872 H         1 UNK         0.1144 
    124 H124      -81.6693   25.6012  -79.5388 H         1 UNK         0.0793 
    125 H125      -82.6721   24.2843  -78.9275 H         1 UNK         0.0793 
    126 H126      -81.2368   23.9359  -79.8814 H         1 UNK         0.0793 
    127 H127      -82.1726   25.9869  -77.1332 H         1 UNK         0.2896 
@<TRIPOS>BOND
     1    1    2 1    
     2    1   67 1    
     3    1   68 1    
     4    1   69 1    
     5    2    3 2    
     6    2    4 am   BACKBONE|DICT|INTERRES
     7    4    5 1    
     8    4   70 1    
     9    5    6 1    
    10    5   65 1    
    11    5   71 1    
    12    6    7 1    
    13    6   72 1    
    14    6   73 1    
    15    7    8 1    
    16    8    9 1    
    17    8   74 1    
    18    8   75 1    
    19    9   10 ar   
    20    9   14 ar   
    21   10   11 ar   
    22   10   76 1    
    23   11   12 ar   
    24   11   48 1    
    25   12   13 ar   
    26   12   77 1    
    27   13   14 ar   
    28   13   15 1    
    29   14   78 1    
    30   15   16 1    
    31   15   79 1    
    32   15   80 1    
    33   16   17 1    
    34   17   18 1    
    35   17   81 1    
    36   17   82 1    
    37   18   19 1    
    38   18   22 1    
    39   18   83 1    
    40   19   20 am   BACKBONE|DICT|INTERRES
    41   19   21 2    
    42   20   84 1    
    43   20   85 1    
    44   22   23 am   BACKBONE|DICT|INTERRES
    45   22   86 1    
    46   23   24 2    
    47   23   25 1    
    48   25   26 1    
    49   25   27 1    
    50   25   87 1    
    51   26   88 1    
    52   26   89 1    
    53   26   90 1    
    54   27   28 am   BACKBONE|DICT|INTERRES
    55   27   91 1    
    56   28   29 2    
    57   28   30 1    
    58   30   31 1    
    59   30   32 1    
    60   30   92 1    
    61   31   93 1    
    62   31   94 1    
    63   31   95 1    
    64   32   33 am   BACKBONE|DICT|INTERRES
    65   32   96 1    
    66   33   34 2    
    67   33   35 1    
    68   35   36 1    
    69   35   37 1    
    70   35   97 1    
    71   36   98 1    
    72   36   99 1    
    73   36  100 1    
    74   37   38 am   BACKBONE|DICT|INTERRES
    75   37  101 1    
    76   38   39 2    
    77   38   40 1    
    78   40   41 1    
    79   40   42 1    
    80   40  102 1    
    81   41  103 1    
    82   41  104 1    
    83   41  105 1    
    84   42   43 am   BACKBONE|DICT|INTERRES
    85   42  106 1    
    86   43   44 2    
    87   43   45 1    
    88   45   46 1    
    89   45   49 1    
    90   45  107 1    
    91   46   47 1    
    92   46  108 1    
    93   46  109 1    
    94   47   48 1    
    95   48  110 1    
    96   48  111 1    
    97   49   50 am   BACKBONE|DICT|INTERRES
    98   49  112 1    
    99   50   51 2    
   100   50   52 1    
   101   52   53 1    
   102   52   54 1    
   103   52  113 1    
   104   53  114 1    
   105   53  115 1    
   106   53  116 1    
   107   54   55 am   BACKBONE|DICT|INTERRES
   108   54  117 1    
   109   55   56 2    
   110   55   57 1    
   111   57   58 1    
   112   57   59 1    
   113   57  118 1    
   114   58  119 1    
   115   58  120 1    
   116   58  121 1    
   117   59   60 am   BACKBONE|DICT|INTERRES
   118   59  122 1    
   119   60   61 2    
   120   60   62 1    
   121   62   63 1    
   122   62   64 1    
   123   62  123 1    
   124   63  124 1    
   125   63  125 1    
   126   63  126 1    
   127   64   65 am   BACKBONE|DICT|INTERRES
   128   64  127 1    
   129   65   66 2    
@<TRIPOS>SUBSTRUCTURE
     1 UNK         1 GROUP             0       ****    0 ROOT    
