@<TRIPOS>MOLECULE
3R135
127   129    1
SMALL
USER_CHARGES


@<TRIPOS>ATOM
      1 CA        -85.7124   27.7785  -73.5491 C.3       0 UNK        -0.1998 
      2 C         -84.5571   28.7575  -73.6959 C.2       0 UNK         0.4909 
      3 O         -84.4318   29.4065  -74.7351 O.2       0 UNK        -0.5240 
      4 N         -83.7200   28.8777  -72.6591 N.am      1 UNK        -0.4739 
      5 CA        -82.5057   29.6984  -72.6504 C.3       1 UNK         0.0864 
      6 C6        -82.0182   29.9999  -71.2057 C.3       11 UNK        -0.0881 
      7 S7        -81.9084   28.5386  -70.1069 S.3       11 UNK        -0.2682 
      8 C8        -80.1924   28.6160  -69.4956 C.3       11 UNK         0.0289 
      9 C9        -79.1889   28.0423  -70.4874 C.ar      11 UNK        -0.0687 
     10 C10       -79.1581   26.6649  -70.7332 C.ar      11 UNK        -0.0823 
     11 C11       -78.2249   26.1219  -71.6216 C.ar      11 UNK        -0.0830 
     12 C12       -77.3220   26.9682  -72.2699 C.ar      11 UNK        -0.1021 
     13 C13       -77.3318   28.3433  -72.0227 C.ar      11 UNK        -0.0753 
     14 C14       -78.2686   28.8765  -71.1311 C.ar      11 UNK        -0.0933 
     15 C15       -76.3650   29.2526  -72.7644 C.3       11 UNK         0.0166 
     16 S16       -74.6616   29.0869  -72.1536 S.3       11 UNK        -0.2615 
     17 C17       -73.7929   30.3929  -73.0955 C.3       11 UNK        -0.0865 
     18 CA        -74.0791   30.4294  -74.6238 C.3       10 UNK         0.0862 
     19 C         -73.3046   31.6000  -75.3004 C.2       10 UNK         0.5551 
     20 N         -72.3824   31.3565  -76.2246 N.am      10 UNK        -0.7319 
     21 O         -73.5524   32.7592  -74.9782 O.2       10 UNK        -0.5018 
     22 N         -73.8689   29.1153  -75.2505 N.am      10 UNK        -0.4509 
     23 C         -74.3714   28.7369  -76.4336 C.2       10 UNK         0.4899 
     24 O         -75.1872   29.4050  -77.0704 O.2       10 UNK        -0.4839 
     25 CA        -73.8673   27.3923  -77.0026 C.3       9 UNK         0.0222 
     26 CB        -73.9415   27.3316  -78.5417 C.3       9 UNK        -0.1966 
     27 N         -72.5312   26.9991  -76.5322 N.am      9 UNK        -0.4218 
     28 C         -71.3867   27.6956  -76.6385 C.2       9 UNK         0.5020 
     29 O         -71.3090   28.7899  -77.1987 O.2       9 UNK        -0.5274 
     30 CA        -70.1280   27.1278  -75.9525 C.3       8 UNK         0.0270 
     31 CB        -69.6602   28.0746  -74.8326 C.3       8 UNK        -0.1976 
     32 N         -70.3307   25.7943  -75.3804 N.am      8 UNK        -0.4313 
     33 C         -70.2185   24.6434  -76.0560 C.2       8 UNK         0.5041 
     34 O         -69.8538   24.5686  -77.2297 O.2       8 UNK        -0.5577 
     35 CA        -70.6095   23.3592  -75.2993 C.3       7 UNK         0.0284 
     36 CB        -69.3762   22.7349  -74.6265 C.3       7 UNK        -0.1958 
     37 N         -71.6701   23.5490  -74.2981 N.am      7 UNK        -0.4454 
     38 C         -72.9118   23.9672  -74.5770 C.2       7 UNK         0.5089 
     39 O         -73.2814   24.3069  -75.7025 O.2       7 UNK        -0.5125 
     40 CA        -73.8872   24.0913  -73.4009 C.3       6 UNK         0.0408 
     41 CB        -73.9195   25.5418  -72.8950 C.3       6 UNK        -0.1791 
     42 N         -75.2202   23.7133  -73.8636 N.am      6 UNK        -0.4762 
     43 C         -75.7695   22.5002  -73.7062 C.2       6 UNK         0.5007 
     44 O         -75.2930   21.6208  -72.9874 O.2       6 UNK        -0.5032 
     45 CA        -77.0526   22.2025  -74.5132 C.3       5 UNK         0.0783 
     46 C46       -78.3362   22.4489  -73.6740 C.3       11 UNK        -0.0857 
     47 S47       -78.8180   24.2074  -73.5212 S.3       11 UNK        -0.2512 
     48 C48       -78.1715   24.6227  -71.8731 C.3       11 UNK         0.0225 
     49 N         -77.0764   22.9325  -75.7834 N.am      5 UNK        -0.4615 
     50 C         -76.2420   22.7450  -76.8137 C.2       4 UNK         0.5053 
     51 O         -75.4801   21.7803  -76.8890 O.2       4 UNK        -0.5105 
     52 CA        -76.2369   23.8075  -77.9394 C.3       4 UNK         0.0263 
     53 CB        -76.1595   23.1557  -79.3318 C.3       4 UNK        -0.1981 
     54 N         -77.3639   24.7523  -77.9245 N.am      4 UNK        -0.4224 
     55 C         -77.5911   25.6968  -77.0027 C.2       3 UNK         0.4895 
     56 O         -76.8763   25.8685  -76.0101 O.2       3 UNK        -0.5091 
     57 CA        -78.8563   26.5447  -77.1894 C.3       3 UNK         0.0250 
     58 CB        -80.1308   25.6816  -77.0785 C.3       3 UNK        -0.1996 
     59 N         -78.8460   27.5651  -76.1510 N.am      3 UNK        -0.4254 
     60 C         -79.6194   28.6493  -76.0642 C.2       2 UNK         0.5004 
     61 O         -80.4763   28.9700  -76.8910 O.2       2 UNK        -0.5226 
     62 CA        -79.3511   29.5470  -74.8475 C.3       2 UNK         0.0269 
     63 CB        -78.5707   30.8081  -75.2539 C.3       2 UNK        -0.1926 
     64 N         -80.5566   29.9278  -74.1108 N.am      2 UNK        -0.4687 
     65 C         -81.3913   29.0670  -73.5099 C.2       1 UNK         0.5165 
     66 O         -81.2840   27.8397  -73.5740 O.2       1 UNK        -0.5079 
     67 H67       -86.6629   28.2992  -73.6617 H         1 UNK         0.0900 
     68 H68       -85.7082   27.2866  -72.5764 H         1 UNK         0.0900 
     69 H69       -85.6513   27.0090  -74.3182 H         1 UNK         0.0900 
     70 H70       -83.8427   28.2964  -71.8416 H         1 UNK         0.2959 
     71 H71       -82.7625   30.6550  -73.1120 H         1 UNK         0.1079 
     72 H72       -81.0613   30.5251  -71.2237 H         1 UNK         0.0837 
     73 H73       -82.7157   30.6963  -70.7377 H         1 UNK         0.0837 
     74 H74       -80.1311   28.0447  -68.5683 H         1 UNK         0.0685 
     75 H75       -79.9426   29.6447  -69.2310 H         1 UNK         0.0685 
     76 H76       -79.8642   26.0184  -70.2303 H         1 UNK         0.1434 
     77 H77       -76.6136   26.5548  -72.9741 H         1 UNK         0.1329 
     78 H78       -78.2846   29.9411  -70.9423 H         1 UNK         0.1335 
     79 H79       -76.6773   30.2949  -72.6839 H         1 UNK         0.0680 
     80 H80       -76.3899   28.9944  -73.8233 H         1 UNK         0.0680 
     81 H81       -72.7228   30.2681  -72.9189 H         1 UNK         0.1032 
     82 H82       -74.0567   31.3510  -72.6430 H         1 UNK         0.1032 
     83 H83       -75.1307   30.6864  -74.7572 H         1 UNK         0.0461 
     84 H84       -71.8991   32.1319  -76.6484 H         1 UNK         0.3453 
     85 H85       -72.1556   30.4094  -76.5117 H         1 UNK         0.3453 
     86 H86       -73.2124   28.5055  -74.7892 H         1 UNK         0.2984 
     87 H87       -74.5417   26.6320  -76.6135 H         1 UNK         0.0554 
     88 H88       -73.6129   26.3618  -78.9153 H         1 UNK         0.0847 
     89 H89       -73.3216   28.0996  -79.0054 H         1 UNK         0.0847 
     90 H90       -74.9639   27.4802  -78.8912 H         1 UNK         0.0847 
     91 H91       -72.4988   26.0801  -76.1013 H         1 UNK         0.3141 
     92 H92       -69.3412   27.0790  -76.7084 H         1 UNK         0.0743 
     93 H93       -69.4513   29.0719  -75.2230 H         1 UNK         0.0784 
     94 H94       -70.4131   28.1832  -74.0508 H         1 UNK         0.0784 
     95 H95       -68.7420   27.7152  -74.3675 H         1 UNK         0.0784 
     96 H96       -70.6150   25.7504  -74.4125 H         1 UNK         0.3213 
     97 H97       -70.9863   22.6524  -76.0421 H         1 UNK         0.0855 
     98 H98       -68.9691   23.3805  -73.8472 H         1 UNK         0.0814 
     99 H99       -68.5813   22.5620  -75.3536 H         1 UNK         0.0814 
    100 H100      -69.6137   21.7710  -74.1760 H         1 UNK         0.0814 
    101 H101      -71.4435   23.3009  -73.3450 H         1 UNK         0.3105 
    102 H102      -73.5612   23.4413  -72.5862 H         1 UNK         0.0547 
    103 H103      -74.2565   26.2344  -73.6678 H         1 UNK         0.0837 
    104 H104      -74.5849   25.6451  -72.0381 H         1 UNK         0.0837 
    105 H105      -72.9312   25.8697  -72.5712 H         1 UNK         0.0837 
    106 H106      -75.6527   24.3454  -74.5266 H         1 UNK         0.3020 
    107 H107      -77.0159   21.1374  -74.7542 H         1 UNK         0.1245 
    108 H108      -78.2534   21.9969  -72.6834 H         1 UNK         0.0781 
    109 H109      -79.1709   21.9350  -74.1530 H         1 UNK         0.0781 
    110 H110      -77.1390   24.2850  -71.7809 H         1 UNK         0.0836 
    111 H111      -78.7419   24.0811  -71.1169 H         1 UNK         0.0836 
    112 H112      -77.6374   23.7733  -75.7820 H         1 UNK         0.3022 
    113 H113      -75.3242   24.3899  -77.7948 H         1 UNK         0.0747 
    114 H114      -76.0819   23.9066  -80.1184 H         1 UNK         0.0793 
    115 H115      -75.2822   22.5133  -79.4194 H         1 UNK         0.0793 
    116 H116      -77.0364   22.5405  -79.5368 H         1 UNK         0.0793 
    117 H117      -78.0219   24.6611  -78.6855 H         1 UNK         0.3047 
    118 H118      -78.8115   27.0299  -78.1664 H         1 UNK         0.0822 
    119 H119      -80.1570   24.9026  -77.8409 H         1 UNK         0.0807 
    120 H120      -81.0318   26.2809  -77.2092 H         1 UNK         0.0807 
    121 H121      -80.2000   25.1921  -76.1063 H         1 UNK         0.0807 
    122 H122      -78.1364   27.3889  -75.4487 H         1 UNK         0.2946 
    123 H123      -78.7446   28.9744  -74.1503 H         1 UNK         0.1144 
    124 H124      -77.6474   30.5449  -75.7728 H         1 UNK         0.0793 
    125 H125      -78.2938   31.4049  -74.3848 H         1 UNK         0.0793 
    126 H126      -79.1522   31.4404  -75.9260 H         1 UNK         0.0793 
    127 H127      -80.7370   30.9181  -74.0338 H         1 UNK         0.2896 
@<TRIPOS>BOND
     1    1    2 1    
     2    1   67 1    
     3    1   68 1    
     4    1   69 1    
     5    2    3 2    
     6    2    4 am   BACKBONE|DICT|INTERRES
     7    4    5 1    
     8    4   70 1    
     9    5    6 1    
    10    5   65 1    
    11    5   71 1    
    12    6    7 1    
    13    6   72 1    
    14    6   73 1    
    15    7    8 1    
    16    8    9 1    
    17    8   74 1    
    18    8   75 1    
    19    9   10 ar   
    20    9   14 ar   
    21   10   11 ar   
    22   10   76 1    
    23   11   12 ar   
    24   11   48 1    
    25   12   13 ar   
    26   12   77 1    
    27   13   14 ar   
    28   13   15 1    
    29   14   78 1    
    30   15   16 1    
    31   15   79 1    
    32   15   80 1    
    33   16   17 1    
    34   17   18 1    
    35   17   81 1    
    36   17   82 1    
    37   18   19 1    
    38   18   22 1    
    39   18   83 1    
    40   19   20 am   BACKBONE|DICT|INTERRES
    41   19   21 2    
    42   20   84 1    
    43   20   85 1    
    44   22   23 am   BACKBONE|DICT|INTERRES
    45   22   86 1    
    46   23   24 2    
    47   23   25 1    
    48   25   26 1    
    49   25   27 1    
    50   25   87 1    
    51   26   88 1    
    52   26   89 1    
    53   26   90 1    
    54   27   28 am   BACKBONE|DICT|INTERRES
    55   27   91 1    
    56   28   29 2    
    57   28   30 1    
    58   30   31 1    
    59   30   32 1    
    60   30   92 1    
    61   31   93 1    
    62   31   94 1    
    63   31   95 1    
    64   32   33 am   BACKBONE|DICT|INTERRES
    65   32   96 1    
    66   33   34 2    
    67   33   35 1    
    68   35   36 1    
    69   35   37 1    
    70   35   97 1    
    71   36   98 1    
    72   36   99 1    
    73   36  100 1    
    74   37   38 am   BACKBONE|DICT|INTERRES
    75   37  101 1    
    76   38   39 2    
    77   38   40 1    
    78   40   41 1    
    79   40   42 1    
    80   40  102 1    
    81   41  103 1    
    82   41  104 1    
    83   41  105 1    
    84   42   43 am   BACKBONE|DICT|INTERRES
    85   42  106 1    
    86   43   44 2    
    87   43   45 1    
    88   45   46 1    
    89   45   49 1    
    90   45  107 1    
    91   46   47 1    
    92   46  108 1    
    93   46  109 1    
    94   47   48 1    
    95   48  110 1    
    96   48  111 1    
    97   49   50 am   BACKBONE|DICT|INTERRES
    98   49  112 1    
    99   50   51 2    
   100   50   52 1    
   101   52   53 1    
   102   52   54 1    
   103   52  113 1    
   104   53  114 1    
   105   53  115 1    
   106   53  116 1    
   107   54   55 am   BACKBONE|DICT|INTERRES
   108   54  117 1    
   109   55   56 2    
   110   55   57 1    
   111   57   58 1    
   112   57   59 1    
   113   57  118 1    
   114   58  119 1    
   115   58  120 1    
   116   58  121 1    
   117   59   60 am   BACKBONE|DICT|INTERRES
   118   59  122 1    
   119   60   61 2    
   120   60   62 1    
   121   62   63 1    
   122   62   64 1    
   123   62  123 1    
   124   63  124 1    
   125   63  125 1    
   126   63  126 1    
   127   64   65 am   BACKBONE|DICT|INTERRES
   128   64  127 1    
   129   65   66 2    
@<TRIPOS>SUBSTRUCTURE
     1 UNK         1 GROUP             0       ****    0 ROOT    
