@<TRIPOS>MOLECULE
3R135
127   129    1
SMALL
USER_CHARGES


@<TRIPOS>ATOM
      1 CA        -83.9124   25.8509  -74.3483 C.3       0 UNK        -0.1998 
      2 C         -82.8385   26.8351  -74.7873 C.2       0 UNK         0.4909 
      3 O         -82.9078   27.3627  -75.8977 O.2       0 UNK        -0.5240 
      4 N         -81.8513   27.0923  -73.9211 N.am      1 UNK        -0.4739 
      5 CA        -80.6995   27.9504  -74.2040 C.3       1 UNK         0.0864 
      6 C6        -80.0024   28.4169  -72.9064 C.3       11 UNK        -0.0881 
      7 S7        -80.9107   29.7578  -72.0517 S.3       11 UNK        -0.2682 
      8 C8        -80.2716   29.7189  -70.3345 C.3       11 UNK         0.0289 
      9 C9        -78.8276   29.2457  -70.2583 C.ar      11 UNK        -0.0687 
     10 C10       -78.5654   27.8982  -70.0112 C.ar      11 UNK        -0.0823 
     11 C11       -77.2719   27.3857  -70.1382 C.ar      11 UNK        -0.0830 
     12 C12       -76.2157   28.2641  -70.4034 C.ar      11 UNK        -0.1021 
     13 C13       -76.4558   29.6323  -70.5773 C.ar      11 UNK        -0.0753 
     14 C14       -77.7665   30.1176  -70.5139 C.ar      11 UNK        -0.0933 
     15 C15       -75.3047   30.5861  -70.8528 C.3       11 UNK         0.0166 
     16 S16       -75.2288   31.0505  -72.6097 S.3       11 UNK        -0.2615 
     17 C17       -73.7749   32.1604  -72.5965 C.3       11 UNK        -0.0865 
     18 CA        -72.5469   31.5964  -73.3580 C.3       10 UNK         0.0862 
     19 C         -71.9010   30.3807  -72.6267 C.2       10 UNK         0.5551 
     20 N         -71.8129   29.2004  -73.2290 N.am      10 UNK        -0.7319 
     21 O         -71.4600   30.5196  -71.4884 O.2       10 UNK        -0.5018 
     22 N         -72.8587   31.3789  -74.7773 N.am      10 UNK        -0.4509 
     23 C         -71.9570   31.3321  -75.7629 C.2       10 UNK         0.4899 
     24 O         -70.7532   31.5540  -75.6185 O.2       10 UNK        -0.4839 
     25 CA        -72.4990   30.9521  -77.1516 C.3       9 UNK         0.0222 
     26 CB        -72.2187   32.0645  -78.1760 C.3       9 UNK        -0.1966 
     27 N         -71.9382   29.6873  -77.6356 N.am      9 UNK        -0.4218 
     28 C         -72.0301   28.5119  -77.0000 C.2       9 UNK         0.5020 
     29 O         -72.5890   28.3563  -75.9081 O.2       9 UNK        -0.5274 
     30 CA        -71.3859   27.3048  -77.6929 C.3       8 UNK         0.0270 
     31 CB        -69.8735   27.2523  -77.4193 C.3       8 UNK        -0.1976 
     32 N         -72.0192   26.1174  -77.1367 N.am      8 UNK        -0.4313 
     33 C         -72.5398   25.0939  -77.8182 C.2       8 UNK         0.5041 
     34 O         -72.3743   24.9132  -79.0254 O.2       8 UNK        -0.5577 
     35 CA        -73.4164   24.1128  -77.0151 C.3       7 UNK         0.0284 
     36 CB        -72.6281   22.8401  -76.6679 C.3       7 UNK        -0.1958 
     37 N         -73.9594   24.6947  -75.7806 N.am      7 UNK        -0.4454 
     38 C         -74.8853   25.6611  -75.7287 C.2       7 UNK         0.5089 
     39 O         -75.4528   26.1140  -76.7238 O.2       7 UNK        -0.5125 
     40 CA        -75.2681   26.1546  -74.3229 C.3       6 UNK         0.0408 
     41 CB        -75.8426   27.5819  -74.3278 C.3       6 UNK        -0.1791 
     42 N         -76.2355   25.2364  -73.7229 N.am      6 UNK        -0.4762 
     43 C         -75.9073   24.0548  -73.1742 C.2       6 UNK         0.5007 
     44 O         -74.7443   23.6647  -73.0573 O.2       6 UNK        -0.5032 
     45 CA        -77.0506   23.1341  -72.7197 C.3       5 UNK         0.0783 
     46 C46       -77.4428   23.3416  -71.2334 C.3       11 UNK        -0.0857 
     47 S47       -78.3009   24.9179  -70.9213 S.3       11 UNK        -0.2512 
     48 C48       -77.0232   25.8838  -70.0380 C.3       11 UNK         0.0225 
     49 N         -78.1718   23.2144  -73.6575 N.am      5 UNK        -0.4615 
     50 C         -79.0622   22.2401  -73.8654 C.2       4 UNK         0.5053 
     51 O         -79.1191   21.2038  -73.2027 O.2       4 UNK        -0.5105 
     52 CA        -80.0252   22.4378  -75.0486 C.3       4 UNK         0.0263 
     53 CB        -81.2534   23.2534  -74.6148 C.3       4 UNK        -0.1981 
     54 N         -79.3872   23.0918  -76.1958 N.am      4 UNK        -0.4224 
     55 C         -78.3668   22.5985  -76.9123 C.2       3 UNK         0.4895 
     56 O         -77.8799   21.4841  -76.7196 O.2       3 UNK        -0.5091 
     57 CA        -77.7551   23.4873  -78.0144 C.3       3 UNK         0.0250 
     58 CB        -78.3168   23.1164  -79.4009 C.3       3 UNK        -0.1996 
     59 N         -77.8354   24.9363  -77.7702 N.am      3 UNK        -0.4254 
     60 C         -78.9210   25.7189  -77.7229 C.2       2 UNK         0.5004 
     61 O         -80.0738   25.3170  -77.8930 O.2       2 UNK        -0.5226 
     62 CA        -78.6780   27.2009  -77.4009 C.3       2 UNK         0.0269 
     63 CB        -78.8358   28.0586  -78.6665 C.3       2 UNK        -0.1926 
     64 N         -79.5801   27.7026  -76.3624 N.am      2 UNK        -0.4687 
     65 C         -79.7070   27.2089  -75.1219 C.2       1 UNK         0.5165 
     66 O         -79.0694   26.2424  -74.6865 O.2       1 UNK        -0.5079 
     67 H67       -83.6897   25.4109  -73.3763 H         1 UNK         0.0900 
     68 H68       -83.9988   25.0421  -75.0734 H         1 UNK         0.0900 
     69 H69       -84.8770   26.3533  -74.2817 H         1 UNK         0.0900 
     70 H70       -81.8388   26.6278  -73.0248 H         1 UNK         0.2959 
     71 H71       -81.0529   28.8395  -74.7316 H         1 UNK         0.1079 
     72 H72       -78.9975   28.7933  -73.1125 H         1 UNK         0.0837 
     73 H73       -79.8787   27.5611  -72.2432 H         1 UNK         0.0837 
     74 H74       -80.3599   30.7150  -69.8986 H         1 UNK         0.0685 
     75 H75       -80.9128   29.0689  -69.7370 H         1 UNK         0.0685 
     76 H76       -79.3907   27.2289  -69.8109 H         1 UNK         0.1434 
     77 H77       -75.2075   27.8828  -70.4930 H         1 UNK         0.1329 
     78 H78       -77.9626   31.1647  -70.7002 H         1 UNK         0.1335 
     79 H79       -74.3559   30.1348  -70.5575 H         1 UNK         0.0680 
     80 H80       -75.4245   31.4841  -70.2446 H         1 UNK         0.0680 
     81 H81       -73.5021   32.4121  -71.5698 H         1 UNK         0.1032 
     82 H82       -74.0761   33.1064  -73.0489 H         1 UNK         0.1032 
     83 H83       -71.7849   32.3777  -73.3247 H         1 UNK         0.0461 
     84 H84       -72.1678   29.0630  -74.1708 H         1 UNK         0.3453 
     85 H85       -71.3860   28.4318  -72.7389 H         1 UNK         0.3453 
     86 H86       -73.8193   31.1399  -74.9769 H         1 UNK         0.2984 
     87 H87       -73.5814   30.8230  -77.0846 H         1 UNK         0.0554 
     88 H88       -72.6669   31.8381  -79.1437 H         1 UNK         0.0847 
     89 H89       -71.1490   32.2155  -78.3274 H         1 UNK         0.0847 
     90 H90       -72.6366   33.0153  -77.8423 H         1 UNK         0.0847 
     91 H91       -71.4326   29.7251  -78.5089 H         1 UNK         0.3141 
     92 H92       -71.5712   27.3713  -78.7672 H         1 UNK         0.0743 
     93 H93       -69.6576   27.2226  -76.3503 H         1 UNK         0.0784 
     94 H94       -69.4207   26.3722  -77.8763 H         1 UNK         0.0784 
     95 H95       -69.3689   28.1274  -77.8307 H         1 UNK         0.0784 
     96 H96       -72.2899   26.2258  -76.1674 H         1 UNK         0.3213 
     97 H97       -74.2560   23.8322  -77.6542 H         1 UNK         0.0855 
     98 H98       -71.7791   23.0552  -76.0178 H         1 UNK         0.0814 
     99 H99       -72.2365   22.3661  -77.5691 H         1 UNK         0.0814 
    100 H100      -73.2594   22.1064  -76.1661 H         1 UNK         0.0814 
    101 H101      -73.6207   24.3186  -74.9029 H         1 UNK         0.3105 
    102 H102      -74.3630   26.1764  -73.7118 H         1 UNK         0.0547 
    103 H103      -75.1280   28.2857  -74.7564 H         1 UNK         0.0837 
    104 H104      -76.7587   27.6554  -74.9095 H         1 UNK         0.0837 
    105 H105      -76.0640   27.9237  -73.3169 H         1 UNK         0.0837 
    106 H106      -77.2072   25.5210  -73.7699 H         1 UNK         0.3020 
    107 H107      -76.6457   22.1221  -72.8017 H         1 UNK         0.1245 
    108 H108      -76.5672   23.2568  -70.5870 H         1 UNK         0.0781 
    109 H109      -78.1113   22.5385  -70.9199 H         1 UNK         0.0781 
    110 H110      -76.0438   25.6433  -70.4547 H         1 UNK         0.0836 
    111 H111      -77.0030   25.5867  -68.9888 H         1 UNK         0.0836 
    112 H112      -78.2165   24.0349  -74.2463 H         1 UNK         0.3022 
    113 H113      -80.3620   21.4513  -75.3736 H         1 UNK         0.0747 
    114 H114      -81.9674   23.3608  -75.4314 H         1 UNK         0.0793 
    115 H115      -81.7738   22.7661  -73.7893 H         1 UNK         0.0793 
    116 H116      -80.9734   24.2523  -74.2792 H         1 UNK         0.0793 
    117 H117      -79.7569   23.9938  -76.4806 H         1 UNK         0.3047 
    118 H118      -76.6882   23.2594  -78.0256 H         1 UNK         0.0822 
    119 H119      -77.8365   23.6938  -80.1908 H         1 UNK         0.0807 
    120 H120      -79.3918   23.2865  -79.4662 H         1 UNK         0.0807 
    121 H121      -78.1442   22.0618  -79.6199 H         1 UNK         0.0807 
    122 H122      -76.9429   25.3754  -77.5471 H         1 UNK         0.2946 
    123 H123      -77.6595   27.3248  -77.0341 H         1 UNK         0.1144 
    124 H124      -78.6072   29.1061  -78.4693 H         1 UNK         0.0793 
    125 H125      -79.8493   28.0036  -79.0665 H         1 UNK         0.0793 
    126 H126      -78.1568   27.7228  -79.4517 H         1 UNK         0.0793 
    127 H127      -80.1882   28.4604  -76.6372 H         1 UNK         0.2896 
@<TRIPOS>BOND
     1    1    2 1    
     2    1   67 1    
     3    1   68 1    
     4    1   69 1    
     5    2    3 2    
     6    2    4 am   BACKBONE|DICT|INTERRES
     7    4    5 1    
     8    4   70 1    
     9    5    6 1    
    10    5   65 1    
    11    5   71 1    
    12    6    7 1    
    13    6   72 1    
    14    6   73 1    
    15    7    8 1    
    16    8    9 1    
    17    8   74 1    
    18    8   75 1    
    19    9   10 ar   
    20    9   14 ar   
    21   10   11 ar   
    22   10   76 1    
    23   11   12 ar   
    24   11   48 1    
    25   12   13 ar   
    26   12   77 1    
    27   13   14 ar   
    28   13   15 1    
    29   14   78 1    
    30   15   16 1    
    31   15   79 1    
    32   15   80 1    
    33   16   17 1    
    34   17   18 1    
    35   17   81 1    
    36   17   82 1    
    37   18   19 1    
    38   18   22 1    
    39   18   83 1    
    40   19   20 am   BACKBONE|DICT|INTERRES
    41   19   21 2    
    42   20   84 1    
    43   20   85 1    
    44   22   23 am   BACKBONE|DICT|INTERRES
    45   22   86 1    
    46   23   24 2    
    47   23   25 1    
    48   25   26 1    
    49   25   27 1    
    50   25   87 1    
    51   26   88 1    
    52   26   89 1    
    53   26   90 1    
    54   27   28 am   BACKBONE|DICT|INTERRES
    55   27   91 1    
    56   28   29 2    
    57   28   30 1    
    58   30   31 1    
    59   30   32 1    
    60   30   92 1    
    61   31   93 1    
    62   31   94 1    
    63   31   95 1    
    64   32   33 am   BACKBONE|DICT|INTERRES
    65   32   96 1    
    66   33   34 2    
    67   33   35 1    
    68   35   36 1    
    69   35   37 1    
    70   35   97 1    
    71   36   98 1    
    72   36   99 1    
    73   36  100 1    
    74   37   38 am   BACKBONE|DICT|INTERRES
    75   37  101 1    
    76   38   39 2    
    77   38   40 1    
    78   40   41 1    
    79   40   42 1    
    80   40  102 1    
    81   41  103 1    
    82   41  104 1    
    83   41  105 1    
    84   42   43 am   BACKBONE|DICT|INTERRES
    85   42  106 1    
    86   43   44 2    
    87   43   45 1    
    88   45   46 1    
    89   45   49 1    
    90   45  107 1    
    91   46   47 1    
    92   46  108 1    
    93   46  109 1    
    94   47   48 1    
    95   48  110 1    
    96   48  111 1    
    97   49   50 am   BACKBONE|DICT|INTERRES
    98   49  112 1    
    99   50   51 2    
   100   50   52 1    
   101   52   53 1    
   102   52   54 1    
   103   52  113 1    
   104   53  114 1    
   105   53  115 1    
   106   53  116 1    
   107   54   55 am   BACKBONE|DICT|INTERRES
   108   54  117 1    
   109   55   56 2    
   110   55   57 1    
   111   57   58 1    
   112   57   59 1    
   113   57  118 1    
   114   58  119 1    
   115   58  120 1    
   116   58  121 1    
   117   59   60 am   BACKBONE|DICT|INTERRES
   118   59  122 1    
   119   60   61 2    
   120   60   62 1    
   121   62   63 1    
   122   62   64 1    
   123   62  123 1    
   124   63  124 1    
   125   63  125 1    
   126   63  126 1    
   127   64   65 am   BACKBONE|DICT|INTERRES
   128   64  127 1    
   129   65   66 2    
@<TRIPOS>SUBSTRUCTURE
     1 UNK         1 GROUP             0       ****    0 ROOT    
