@<TRIPOS>MOLECULE
3R135
127   129    1
SMALL
USER_CHARGES


@<TRIPOS>ATOM
      1 CA        -85.1923   28.0970  -71.0553 C.3       0 UNK        -0.1998 
      2 C         -84.9397   27.8123  -72.5281 C.2       0 UNK         0.4909 
      3 O         -85.6992   27.0666  -73.1472 O.2       0 UNK        -0.5240 
      4 N         -83.8791   28.4028  -73.0939 N.am      1 UNK        -0.4739 
      5 CA        -83.4537   28.2237  -74.4888 C.3       1 UNK         0.0864 
      6 C6        -82.4765   29.3377  -74.9522 C.3       11 UNK        -0.0881 
      7 S7        -81.1282   29.7030  -73.7729 S.3       11 UNK        -0.2682 
      8 C8        -79.7429   28.8017  -74.5263 C.3       11 UNK         0.0289 
      9 C9        -78.5273   28.8047  -73.6140 C.ar      11 UNK        -0.0687 
     10 C10       -78.5257   28.0133  -72.4633 C.ar      11 UNK        -0.0823 
     11 C11       -77.4191   27.9996  -71.6101 C.ar      11 UNK        -0.0830 
     12 C12       -76.3074   28.7898  -71.9149 C.ar      11 UNK        -0.1021 
     13 C13       -76.2883   29.5746  -73.0726 C.ar      11 UNK        -0.0753 
     14 C14       -77.4054   29.5832  -73.9154 C.ar      11 UNK        -0.0933 
     15 C15       -75.0713   30.4251  -73.4102 C.3       11 UNK         0.0166 
     16 S16       -73.8839   29.5260  -74.4588 S.3       11 UNK        -0.2615 
     17 C17       -72.9135   28.5959  -73.2195 C.3       11 UNK        -0.0865 
     18 CA        -71.4923   29.1781  -72.9970 C.3       10 UNK         0.0862 
     19 C         -70.7642   28.4275  -71.8432 C.2       10 UNK         0.5551 
     20 N         -69.6666   27.7238  -72.0931 N.am      10 UNK        -0.7319 
     21 O         -71.2048   28.4910  -70.6984 O.2       10 UNK        -0.5018 
     22 N         -70.7438   29.2519  -74.2612 N.am      10 UNK        -0.4509 
     23 C         -69.6558   29.9989  -74.4924 C.2       10 UNK         0.4899 
     24 O         -69.1121   30.7049  -73.6432 O.2       10 UNK        -0.4839 
     25 CA        -69.0770   29.9550  -75.9205 C.3       9 UNK         0.0222 
     26 CB        -67.8529   29.0270  -75.9752 C.3       9 UNK        -0.1966 
     27 N         -70.0614   29.5078  -76.9100 N.am      9 UNK        -0.4218 
     28 C         -71.0977   30.2311  -77.3507 C.2       9 UNK         0.5020 
     29 O         -71.2529   31.4269  -77.1008 O.2       9 UNK        -0.5274 
     30 CA        -72.1715   29.4863  -78.1636 C.3       8 UNK         0.0270 
     31 CB        -71.7560   29.3299  -79.6396 C.3       8 UNK        -0.1976 
     32 N         -72.5883   28.2048  -77.5682 N.am      8 UNK        -0.4313 
     33 C         -71.8968   27.0629  -77.4336 C.2       8 UNK         0.5041 
     34 O         -70.7299   26.9351  -77.8080 O.2       8 UNK        -0.5577 
     35 CA        -72.5793   25.8815  -76.7124 C.3       7 UNK         0.0284 
     36 CB        -71.6788   25.3267  -75.5935 C.3       7 UNK        -0.1958 
     37 N         -73.8911   26.1989  -76.1394 N.am      7 UNK        -0.4454 
     38 C         -75.0423   26.3004  -76.8101 C.2       7 UNK         0.5089 
     39 O         -75.1242   26.1535  -78.0304 O.2       7 UNK        -0.5125 
     40 CA        -76.2939   26.6543  -75.9771 C.3       6 UNK         0.0408 
     41 CB        -77.5207   26.9013  -76.8733 C.3       6 UNK        -0.1791 
     42 N         -76.6451   25.6454  -74.9721 N.am      6 UNK        -0.4762 
     43 C         -75.9475   25.3152  -73.8732 C.2       6 UNK         0.5007 
     44 O         -74.8697   25.8292  -73.5713 O.2       6 UNK        -0.5032 
     45 CA        -76.5210   24.1892  -72.9847 C.3       5 UNK         0.0783 
     46 C46       -77.3925   24.7181  -71.8203 C.3       11 UNK        -0.0857 
     47 S47       -76.4484   25.6181  -70.5436 S.3       11 UNK        -0.2512 
     48 C48       -77.4299   27.1418  -70.3526 C.3       11 UNK         0.0225 
     49 N         -77.2829   23.2330  -73.7898 N.am      5 UNK        -0.4615 
     50 C         -76.7638   22.1628  -74.4043 C.2       4 UNK         0.5053 
     51 O         -75.5816   21.8309  -74.3177 O.2       4 UNK        -0.5105 
     52 CA        -77.7243   21.3074  -75.2517 C.3       4 UNK         0.0263 
     53 CB        -78.2522   20.1215  -74.4282 C.3       4 UNK        -0.1981 
     54 N         -78.8593   22.0689  -75.7810 N.am      4 UNK        -0.4224 
     55 C         -78.7704   22.9752  -76.7647 C.2       3 UNK         0.4895 
     56 O         -77.7339   23.2126  -77.3836 O.2       3 UNK        -0.5091 
     57 CA        -80.0452   23.7696  -77.1031 C.3       3 UNK         0.0250 
     58 CB        -80.8061   23.0945  -78.2555 C.3       3 UNK        -0.1996 
     59 N         -80.9599   23.9745  -75.9730 N.am      3 UNK        -0.4254 
     60 C         -80.6583   24.6180  -74.8365 C.2       2 UNK         0.5004 
     61 O         -79.5351   25.0504  -74.5720 O.2       2 UNK        -0.5226 
     62 CA        -81.7966   24.7866  -73.8145 C.3       2 UNK         0.0269 
     63 CB        -81.3375   24.3774  -72.4041 C.3       2 UNK        -0.1926 
     64 N         -82.3150   26.1566  -73.7675 N.am      2 UNK        -0.4687 
     65 C         -82.9076   26.8079  -74.7806 C.2       1 UNK         0.5165 
     66 O         -83.0665   26.3256  -75.9028 O.2       1 UNK        -0.5079 
     67 H67       -84.4482   28.7751  -70.6377 H         1 UNK         0.0900 
     68 H68       -85.1645   27.1696  -70.4839 H         1 UNK         0.0900 
     69 H69       -86.1748   28.5494  -70.9238 H         1 UNK         0.0900 
     70 H70       -83.2886   29.0120  -72.5438 H         1 UNK         0.2959 
     71 H71       -84.3514   28.3169  -75.1049 H         1 UNK         0.1079 
     72 H72       -82.0642   29.1188  -75.9395 H         1 UNK         0.0837 
     73 H73       -83.0395   30.2636  -75.0801 H         1 UNK         0.0837 
     74 H74       -80.0426   27.7715  -74.7187 H         1 UNK         0.0685 
     75 H75       -79.5048   29.2470  -75.4935 H         1 UNK         0.0685 
     76 H76       -79.3939   27.4105  -72.2353 H         1 UNK         0.1434 
     77 H77       -75.4563   28.7841  -71.2491 H         1 UNK         0.1329 
     78 H78       -77.3977   30.1925  -74.8087 H         1 UNK         0.1335 
     79 H79       -74.5780   30.7712  -72.5006 H         1 UNK         0.0680 
     80 H80       -75.3894   31.3241  -73.9401 H         1 UNK         0.0680 
     81 H81       -72.8476   27.5586  -73.5472 H         1 UNK         0.1032 
     82 H82       -73.4624   28.5656  -72.2787 H         1 UNK         0.1032 
     83 H83       -71.6159   30.2045  -72.6461 H         1 UNK         0.0461 
     84 H84       -69.2913   27.6780  -73.0261 H         1 UNK         0.3453 
     85 H85       -69.2029   27.2460  -71.3366 H         1 UNK         0.3453 
     86 H86       -71.1280   28.7258  -75.0295 H         1 UNK         0.2984 
     87 H87       -68.7561   30.9656  -76.1814 H         1 UNK         0.0554 
     88 H88       -67.3903   29.0397  -76.9622 H         1 UNK         0.0847 
     89 H89       -68.1163   27.9944  -75.7423 H         1 UNK         0.0847 
     90 H90       -67.0921   29.3403  -75.2586 H         1 UNK         0.0847 
     91 H91       -70.0322   28.5303  -77.1989 H         1 UNK         0.3141 
     92 H92       -73.0634   30.1149  -78.1447 H         1 UNK         0.0743 
     93 H93       -70.8512   28.7321  -79.7521 H         1 UNK         0.0784 
     94 H94       -72.5448   28.8566  -80.2243 H         1 UNK         0.0784 
     95 H95       -71.5571   30.3028  -80.0909 H         1 UNK         0.0784 
     96 H96       -73.5207   28.2055  -77.1789 H         1 UNK         0.3213 
     97 H97       -72.7156   25.0948  -77.4575 H         1 UNK         0.0855 
     98 H98       -71.4529   26.0817  -74.8405 H         1 UNK         0.0814 
     99 H99       -72.1468   24.4805  -75.0899 H         1 UNK         0.0814 
    100 H100      -70.7273   24.9736  -75.9936 H         1 UNK         0.0814 
    101 H101      -73.9557   26.2690  -75.1256 H         1 UNK         0.3105 
    102 H102      -76.0764   27.5815  -75.4456 H         1 UNK         0.0547 
    103 H103      -77.3595   27.7591  -77.5270 H         1 UNK         0.0837 
    104 H104      -77.7300   26.0417  -77.5101 H         1 UNK         0.0837 
    105 H105      -78.4145   27.1006  -76.2868 H         1 UNK         0.0837 
    106 H106      -77.5470   25.1996  -75.0955 H         1 UNK         0.3020 
    107 H107      -75.6653   23.6697  -72.5465 H         1 UNK         0.1245 
    108 H108      -77.8766   23.8801  -71.3163 H         1 UNK         0.0781 
    109 H109      -78.2041   25.3327  -72.2053 H         1 UNK         0.0781 
    110 H110      -77.0258   27.7180  -69.5190 H         1 UNK         0.0836 
    111 H111      -78.4511   26.8794  -70.0714 H         1 UNK         0.0836 
    112 H112      -78.2510   23.4753  -73.9591 H         1 UNK         0.3022 
    113 H113      -77.1544   20.9110  -76.0950 H         1 UNK         0.0747 
    114 H114      -78.8770   19.4643  -75.0334 H         1 UNK         0.0793 
    115 H115      -77.4291   19.5178  -74.0427 H         1 UNK         0.0793 
    116 H116      -78.8414   20.4528  -73.5721 H         1 UNK         0.0793 
    117 H117      -79.7567   21.9232  -75.3418 H         1 UNK         0.3047 
    118 H118      -79.7299   24.7581  -77.4412 H         1 UNK         0.0822 
    119 H119      -81.6521   23.7001  -78.5814 H         1 UNK         0.0807 
    120 H120      -81.1848   22.1123  -77.9699 H         1 UNK         0.0807 
    121 H121      -80.1585   22.9548  -79.1224 H         1 UNK         0.0807 
    122 H122      -81.9151   23.6784  -76.1161 H         1 UNK         0.2946 
    123 H123      -82.6202   24.1291  -74.1014 H         1 UNK         0.1144 
    124 H124      -80.9081   23.3746  -72.4052 H         1 UNK         0.0793 
    125 H125      -82.1726   24.3694  -71.7035 H         1 UNK         0.0793 
    126 H126      -80.5805   25.0564  -72.0114 H         1 UNK         0.0793 
    127 H127      -82.2287   26.6435  -72.8878 H         1 UNK         0.2896 
@<TRIPOS>BOND
     1    1    2 1    
     2    1   67 1    
     3    1   68 1    
     4    1   69 1    
     5    2    3 2    
     6    2    4 am   BACKBONE|DICT|INTERRES
     7    4    5 1    
     8    4   70 1    
     9    5    6 1    
    10    5   65 1    
    11    5   71 1    
    12    6    7 1    
    13    6   72 1    
    14    6   73 1    
    15    7    8 1    
    16    8    9 1    
    17    8   74 1    
    18    8   75 1    
    19    9   10 ar   
    20    9   14 ar   
    21   10   11 ar   
    22   10   76 1    
    23   11   12 ar   
    24   11   48 1    
    25   12   13 ar   
    26   12   77 1    
    27   13   14 ar   
    28   13   15 1    
    29   14   78 1    
    30   15   16 1    
    31   15   79 1    
    32   15   80 1    
    33   16   17 1    
    34   17   18 1    
    35   17   81 1    
    36   17   82 1    
    37   18   19 1    
    38   18   22 1    
    39   18   83 1    
    40   19   20 am   BACKBONE|DICT|INTERRES
    41   19   21 2    
    42   20   84 1    
    43   20   85 1    
    44   22   23 am   BACKBONE|DICT|INTERRES
    45   22   86 1    
    46   23   24 2    
    47   23   25 1    
    48   25   26 1    
    49   25   27 1    
    50   25   87 1    
    51   26   88 1    
    52   26   89 1    
    53   26   90 1    
    54   27   28 am   BACKBONE|DICT|INTERRES
    55   27   91 1    
    56   28   29 2    
    57   28   30 1    
    58   30   31 1    
    59   30   32 1    
    60   30   92 1    
    61   31   93 1    
    62   31   94 1    
    63   31   95 1    
    64   32   33 am   BACKBONE|DICT|INTERRES
    65   32   96 1    
    66   33   34 2    
    67   33   35 1    
    68   35   36 1    
    69   35   37 1    
    70   35   97 1    
    71   36   98 1    
    72   36   99 1    
    73   36  100 1    
    74   37   38 am   BACKBONE|DICT|INTERRES
    75   37  101 1    
    76   38   39 2    
    77   38   40 1    
    78   40   41 1    
    79   40   42 1    
    80   40  102 1    
    81   41  103 1    
    82   41  104 1    
    83   41  105 1    
    84   42   43 am   BACKBONE|DICT|INTERRES
    85   42  106 1    
    86   43   44 2    
    87   43   45 1    
    88   45   46 1    
    89   45   49 1    
    90   45  107 1    
    91   46   47 1    
    92   46  108 1    
    93   46  109 1    
    94   47   48 1    
    95   48  110 1    
    96   48  111 1    
    97   49   50 am   BACKBONE|DICT|INTERRES
    98   49  112 1    
    99   50   51 2    
   100   50   52 1    
   101   52   53 1    
   102   52   54 1    
   103   52  113 1    
   104   53  114 1    
   105   53  115 1    
   106   53  116 1    
   107   54   55 am   BACKBONE|DICT|INTERRES
   108   54  117 1    
   109   55   56 2    
   110   55   57 1    
   111   57   58 1    
   112   57   59 1    
   113   57  118 1    
   114   58  119 1    
   115   58  120 1    
   116   58  121 1    
   117   59   60 am   BACKBONE|DICT|INTERRES
   118   59  122 1    
   119   60   61 2    
   120   60   62 1    
   121   62   63 1    
   122   62   64 1    
   123   62  123 1    
   124   63  124 1    
   125   63  125 1    
   126   63  126 1    
   127   64   65 am   BACKBONE|DICT|INTERRES
   128   64  127 1    
   129   65   66 2    
@<TRIPOS>SUBSTRUCTURE
     1 UNK         1 GROUP             0       ****    0 ROOT    
