@<TRIPOS>MOLECULE
3R135
127   129    1
SMALL
USER_CHARGES


@<TRIPOS>ATOM
      1 CA        -76.2711   27.1806  -71.4731 C.3       0 UNK        -0.1998 
      2 C         -77.4845   26.2803  -71.3077 C.2       0 UNK         0.4909 
      3 O         -77.3384   25.1272  -70.9018 O.2       0 UNK        -0.5240 
      4 N         -78.6780   26.8048  -71.6048 N.am      1 UNK        -0.4739 
      5 CA        -79.9522   26.0837  -71.5196 C.3       1 UNK         0.0864 
      6 C6        -81.1257   27.0123  -71.0957 C.3       11 UNK        -0.0881 
      7 S7        -80.7560   28.0768  -69.6571 S.3       11 UNK        -0.2682 
      8 C8        -80.9882   29.7431  -70.3594 C.3       11 UNK         0.0289 
      9 C9        -79.8788   30.1267  -71.3301 C.ar      11 UNK        -0.0687 
     10 C10       -80.0385   29.9294  -72.7052 C.ar      11 UNK        -0.0823 
     11 C11       -79.0281   30.2930  -73.5988 C.ar      11 UNK        -0.0830 
     12 C12       -77.8560   30.8818  -73.1112 C.ar      11 UNK        -0.1021 
     13 C13       -77.6944   31.1079  -71.7407 C.ar      11 UNK        -0.0753 
     14 C14       -78.7043   30.7176  -70.8553 C.ar      11 UNK        -0.0933 
     15 C15       -76.4628   31.8312  -71.2139 C.3       11 UNK         0.0166 
     16 S16       -75.3409   30.7266  -70.3032 S.3       11 UNK        -0.2615 
     17 C17       -74.2744   30.0800  -71.6371 C.3       11 UNK        -0.0865 
     18 CA        -73.0101   30.9454  -71.9080 C.3       10 UNK         0.0862 
     19 C         -72.0494   31.0205  -70.6818 C.2       10 UNK         0.5551 
     20 N         -71.1804   30.0418  -70.4716 N.am      10 UNK        -0.7319 
     21 O         -72.0759   31.9931  -69.9317 O.2       10 UNK        -0.5018 
     22 N         -72.3474   30.5866  -73.1770 N.am      10 UNK        -0.4509 
     23 C         -71.7988   29.4082  -73.5003 C.2       10 UNK         0.4899 
     24 O         -71.7944   28.4215  -72.7593 O.2       10 UNK        -0.4839 
     25 CA        -71.0809   29.3444  -74.8595 C.3       9 UNK         0.0222 
     26 CB        -69.6708   29.9485  -74.7489 C.3       9 UNK        -0.1966 
     27 N         -70.9690   27.9615  -75.3265 N.am      9 UNK        -0.4218 
     28 C         -71.9786   27.2632  -75.8579 C.2       9 UNK         0.5020 
     29 O         -73.0772   27.7476  -76.1354 O.2       9 UNK        -0.5274 
     30 CA        -71.7285   25.7617  -76.0529 C.3       8 UNK         0.0270 
     31 CB        -72.0404   25.0027  -74.7513 C.3       8 UNK        -0.1976 
     32 N         -72.5695   25.2229  -77.1198 N.am      8 UNK        -0.4313 
     33 C         -72.2423   25.2030  -78.4172 C.2       8 UNK         0.5041 
     34 O         -71.1772   25.6350  -78.8613 O.2       8 UNK        -0.5577 
     35 CA        -73.2628   24.5852  -79.3836 C.3       7 UNK         0.0284 
     36 CB        -73.3170   23.0571  -79.2130 C.3       7 UNK        -0.1958 
     37 N         -74.6000   25.1410  -79.1743 N.am      7 UNK        -0.4454 
     38 C         -75.2685   25.8948  -80.0597 C.2       7 UNK         0.5089 
     39 O         -74.8260   26.2088  -81.1655 O.2       7 UNK        -0.5125 
     40 CA        -76.6775   26.3779  -79.6621 C.3       6 UNK         0.0408 
     41 CB        -77.7546   25.5318  -80.3588 C.3       6 UNK        -0.1791 
     42 N         -76.8900   26.3452  -78.2136 N.am      6 UNK        -0.4762 
     43 C         -76.4043   27.2674  -77.3684 C.2       6 UNK         0.5007 
     44 O         -75.8765   28.3127  -77.7505 O.2       6 UNK        -0.5032 
     45 CA        -76.4939   26.9789  -75.8514 C.3       5 UNK         0.0783 
     46 C46       -77.2481   28.0820  -75.0750 C.3       11 UNK        -0.0857 
     47 S47       -78.9941   28.3166  -75.5451 S.3       11 UNK        -0.2512 
     48 C48       -79.2195   30.0661  -75.0930 C.3       11 UNK         0.0225 
     49 N         -76.9515   25.6236  -75.5078 N.am      5 UNK        -0.4615 
     50 C         -76.2104   24.5235  -75.7090 C.2       4 UNK         0.5053 
     51 O         -75.1181   24.5369  -76.2768 O.2       4 UNK        -0.5105 
     52 CA        -76.7881   23.1775  -75.2530 C.3       4 UNK         0.0263 
     53 CB        -76.6793   23.0244  -73.7291 C.3       4 UNK        -0.1981 
     54 N         -78.1730   22.9691  -75.6691 N.am      4 UNK        -0.4224 
     55 C         -78.6219   22.9467  -76.9296 C.2       3 UNK         0.4895 
     56 O         -77.9003   23.1236  -77.9104 O.2       3 UNK        -0.5091 
     57 CA        -80.1276   22.7012  -77.1473 C.3       3 UNK         0.0250 
     58 CB        -80.4344   21.1939  -77.2429 C.3       3 UNK        -0.1996 
     59 N         -81.0063   23.3744  -76.1775 N.am      3 UNK        -0.4254 
     60 C         -81.1234   23.1626  -74.8586 C.2       2 UNK         0.5004 
     61 O         -80.5215   22.2850  -74.2351 O.2       2 UNK        -0.5226 
     62 CA        -82.0484   24.1258  -74.1004 C.3       2 UNK         0.0269 
     63 CB        -83.3534   23.4172  -73.7025 C.3       2 UNK        -0.1926 
     64 N         -81.4273   24.7026  -72.9029 N.am      2 UNK        -0.4687 
     65 C         -80.2691   25.3812  -72.8599 C.2       1 UNK         0.5165 
     66 O         -79.5079   25.5017  -73.8257 O.2       1 UNK        -0.5079 
     67 H67       -76.5628   28.2055  -71.7010 H         1 UNK         0.0900 
     68 H68       -75.6344   26.8141  -72.2781 H         1 UNK         0.0900 
     69 H69       -75.6869   27.1959  -70.5535 H         1 UNK         0.0900 
     70 H70       -78.7428   27.7547  -71.9433 H         1 UNK         0.2959 
     71 H71       -79.8613   25.3004  -70.7637 H         1 UNK         0.1079 
     72 H72       -81.4518   27.6297  -71.9321 H         1 UNK         0.0837 
     73 H73       -81.9975   26.4144  -70.8251 H         1 UNK         0.0837 
     74 H74       -81.0202   30.4634  -69.5405 H         1 UNK         0.0685 
     75 H75       -81.9623   29.8018  -70.8476 H         1 UNK         0.0685 
     76 H76       -80.9512   29.4957  -73.0892 H         1 UNK         0.1434 
     77 H77       -77.0794   31.1844  -73.8002 H         1 UNK         0.1329 
     78 H78       -78.5818   30.8914  -69.7948 H         1 UNK         0.1335 
     79 H79       -76.7851   32.6260  -70.5395 H         1 UNK         0.0680 
     80 H80       -75.9211   32.3255  -72.0218 H         1 UNK         0.0680 
     81 H81       -73.9836   29.0624  -71.3724 H         1 UNK         0.1032 
     82 H82       -74.8696   29.9908  -72.5470 H         1 UNK         0.1032 
     83 H83       -73.3594   31.9657  -72.0737 H         1 UNK         0.0461 
     84 H84       -71.1746   29.2481  -71.1024 H         1 UNK         0.3453 
     85 H85       -70.5481   30.0843  -69.6884 H         1 UNK         0.3453 
     86 H86       -72.2582   31.3459  -73.8372 H         1 UNK         0.2984 
     87 H87       -71.6545   29.9205  -75.5891 H         1 UNK         0.0554 
     88 H88       -69.1495   29.9181  -75.7060 H         1 UNK         0.0847 
     89 H89       -69.0594   29.4190  -74.0167 H         1 UNK         0.0847 
     90 H90       -69.7130   30.9938  -74.4401 H         1 UNK         0.0847 
     91 H91       -70.1206   27.4723  -75.0804 H         1 UNK         0.3141 
     92 H92       -70.6775   25.6052  -76.3058 H         1 UNK         0.0743 
     93 H93       -73.0769   25.1437  -74.4410 H         1 UNK         0.0784 
     94 H94       -71.8677   23.9323  -74.8645 H         1 UNK         0.0784 
     95 H95       -71.4079   25.3491  -73.9328 H         1 UNK         0.0784 
     96 H96       -73.4956   24.9066  -76.8337 H         1 UNK         0.3213 
     97 H97       -72.9168   24.7944  -80.3982 H         1 UNK         0.0855 
     98 H98       -73.6784   22.7694  -78.2247 H         1 UNK         0.0814 
     99 H99       -72.3287   22.6139  -79.3427 H         1 UNK         0.0814 
    100 H100      -73.9756   22.6019  -79.9529 H         1 UNK         0.0814 
    101 H101      -75.0279   24.9618  -78.2725 H         1 UNK         0.3105 
    102 H102      -76.7867   27.4074  -80.0100 H         1 UNK         0.0547 
    103 H103      -77.6816   25.6301  -81.4427 H         1 UNK         0.0837 
    104 H104      -77.6524   24.4721  -80.1257 H         1 UNK         0.0837 
    105 H105      -78.7582   25.8461  -80.0723 H         1 UNK         0.0837 
    106 H106      -77.3144   25.5102  -77.8309 H         1 UNK         0.3020 
    107 H107      -75.4600   27.0356  -75.5048 H         1 UNK         0.1245 
    108 H108      -76.7193   29.0295  -75.1938 H         1 UNK         0.0781 
    109 H109      -77.2211   27.8648  -74.0092 H         1 UNK         0.0781 
    110 H110      -80.2230   30.3800  -75.3839 H         1 UNK         0.0836 
    111 H111      -78.5297   30.6826  -75.6716 H         1 UNK         0.0836 
    112 H112      -77.8553   25.5488  -75.0477 H         1 UNK         0.3022 
    113 H113      -76.1877   22.3918  -75.7162 H         1 UNK         0.0747 
    114 H114      -76.9585   22.0198  -73.4110 H         1 UNK         0.0793 
    115 H115      -75.6590   23.2023  -73.3861 H         1 UNK         0.0793 
    116 H116      -77.3278   23.7298  -73.2093 H         1 UNK         0.0793 
    117 H117      -78.8565   22.7976  -74.9356 H         1 UNK         0.3047 
    118 H118      -80.3710   23.1429  -78.1152 H         1 UNK         0.0822 
    119 H119      -81.4866   21.0166  -77.4651 H         1 UNK         0.0807 
    120 H120      -80.1927   20.6662  -76.3198 H         1 UNK         0.0807 
    121 H121      -79.8522   20.7301  -78.0404 H         1 UNK         0.0807 
    122 H122      -81.5347   24.1431  -76.5673 H         1 UNK         0.2946 
    123 H123      -82.2990   24.9601  -74.7593 H         1 UNK         0.1144 
    124 H124      -84.0556   24.1070  -73.2339 H         1 UNK         0.0793 
    125 H125      -83.1699   22.5979  -73.0058 H         1 UNK         0.0793 
    126 H126      -83.8517   22.9952  -74.5765 H         1 UNK         0.0793 
    127 H127      -81.9655   24.6227  -72.0528 H         1 UNK         0.2896 
@<TRIPOS>BOND
     1    1    2 1    
     2    1   67 1    
     3    1   68 1    
     4    1   69 1    
     5    2    3 2    
     6    2    4 am   BACKBONE|DICT|INTERRES
     7    4    5 1    
     8    4   70 1    
     9    5    6 1    
    10    5   65 1    
    11    5   71 1    
    12    6    7 1    
    13    6   72 1    
    14    6   73 1    
    15    7    8 1    
    16    8    9 1    
    17    8   74 1    
    18    8   75 1    
    19    9   10 ar   
    20    9   14 ar   
    21   10   11 ar   
    22   10   76 1    
    23   11   12 ar   
    24   11   48 1    
    25   12   13 ar   
    26   12   77 1    
    27   13   14 ar   
    28   13   15 1    
    29   14   78 1    
    30   15   16 1    
    31   15   79 1    
    32   15   80 1    
    33   16   17 1    
    34   17   18 1    
    35   17   81 1    
    36   17   82 1    
    37   18   19 1    
    38   18   22 1    
    39   18   83 1    
    40   19   20 am   BACKBONE|DICT|INTERRES
    41   19   21 2    
    42   20   84 1    
    43   20   85 1    
    44   22   23 am   BACKBONE|DICT|INTERRES
    45   22   86 1    
    46   23   24 2    
    47   23   25 1    
    48   25   26 1    
    49   25   27 1    
    50   25   87 1    
    51   26   88 1    
    52   26   89 1    
    53   26   90 1    
    54   27   28 am   BACKBONE|DICT|INTERRES
    55   27   91 1    
    56   28   29 2    
    57   28   30 1    
    58   30   31 1    
    59   30   32 1    
    60   30   92 1    
    61   31   93 1    
    62   31   94 1    
    63   31   95 1    
    64   32   33 am   BACKBONE|DICT|INTERRES
    65   32   96 1    
    66   33   34 2    
    67   33   35 1    
    68   35   36 1    
    69   35   37 1    
    70   35   97 1    
    71   36   98 1    
    72   36   99 1    
    73   36  100 1    
    74   37   38 am   BACKBONE|DICT|INTERRES
    75   37  101 1    
    76   38   39 2    
    77   38   40 1    
    78   40   41 1    
    79   40   42 1    
    80   40  102 1    
    81   41  103 1    
    82   41  104 1    
    83   41  105 1    
    84   42   43 am   BACKBONE|DICT|INTERRES
    85   42  106 1    
    86   43   44 2    
    87   43   45 1    
    88   45   46 1    
    89   45   49 1    
    90   45  107 1    
    91   46   47 1    
    92   46  108 1    
    93   46  109 1    
    94   47   48 1    
    95   48  110 1    
    96   48  111 1    
    97   49   50 am   BACKBONE|DICT|INTERRES
    98   49  112 1    
    99   50   51 2    
   100   50   52 1    
   101   52   53 1    
   102   52   54 1    
   103   52  113 1    
   104   53  114 1    
   105   53  115 1    
   106   53  116 1    
   107   54   55 am   BACKBONE|DICT|INTERRES
   108   54  117 1    
   109   55   56 2    
   110   55   57 1    
   111   57   58 1    
   112   57   59 1    
   113   57  118 1    
   114   58  119 1    
   115   58  120 1    
   116   58  121 1    
   117   59   60 am   BACKBONE|DICT|INTERRES
   118   59  122 1    
   119   60   61 2    
   120   60   62 1    
   121   62   63 1    
   122   62   64 1    
   123   62  123 1    
   124   63  124 1    
   125   63  125 1    
   126   63  126 1    
   127   64   65 am   BACKBONE|DICT|INTERRES
   128   64  127 1    
   129   65   66 2    
@<TRIPOS>SUBSTRUCTURE
     1 UNK         1 GROUP             0       ****    0 ROOT    
