@<TRIPOS>MOLECULE
3R135
127   129    1
SMALL
USER_CHARGES


@<TRIPOS>ATOM
      1 CA        -80.2000   21.7584  -72.7746 C.3       0 UNK        -0.1998 
      2 C         -80.8921   23.0691  -73.1140 C.2       0 UNK         0.4909 
      3 O         -81.5461   23.1640  -74.1532 O.2       0 UNK        -0.5240 
      4 N         -80.7444   24.0864  -72.2552 N.am      1 UNK        -0.4739 
      5 CA        -81.2932   25.4346  -72.4368 C.3       1 UNK         0.0864 
      6 C6        -81.1040   26.3246  -71.1812 C.3       11 UNK        -0.0881 
      7 S7        -79.4004   26.3655  -70.5112 S.3       11 UNK        -0.2682 
      8 C8        -79.3785   27.9912  -69.6927 C.3       11 UNK         0.0289 
      9 C9        -78.4704   28.9926  -70.3956 C.ar      11 UNK        -0.0687 
     10 C10       -78.7960   29.4929  -71.6614 C.ar      11 UNK        -0.0823 
     11 C11       -77.9984   30.4725  -72.2651 C.ar      11 UNK        -0.0830 
     12 C12       -76.8694   30.9514  -71.5920 C.ar      11 UNK        -0.1021 
     13 C13       -76.5258   30.4478  -70.3341 C.ar      11 UNK        -0.0753 
     14 C14       -77.3264   29.4652  -69.7460 C.ar      11 UNK        -0.0933 
     15 C15       -75.3196   30.9901  -69.5809 C.3       11 UNK         0.0166 
     16 S16       -73.8146   30.0220  -69.9125 S.3       11 UNK        -0.2615 
     17 C17       -73.2291   30.7618  -71.4744 C.3       11 UNK        -0.0865 
     18 CA        -73.5198   29.8874  -72.7209 C.3       10 UNK         0.0862 
     19 C         -73.1070   30.6436  -74.0088 C.2       10 UNK         0.5551 
     20 N         -74.0449   31.2718  -74.6999 N.am      10 UNK        -0.7319 
     21 O         -71.9314   30.6954  -74.3667 O.2       10 UNK        -0.5018 
     22 N         -72.7893   28.6187  -72.6889 N.am      10 UNK        -0.4509 
     23 C         -73.3179   27.4028  -72.5264 C.2       10 UNK         0.4899 
     24 O         -74.4804   27.1838  -72.1867 O.2       10 UNK        -0.4839 
     25 CA        -72.3880   26.2429  -72.9161 C.3       9 UNK         0.0222 
     26 CB        -72.9065   24.8648  -72.4683 C.3       9 UNK        -0.1966 
     27 N         -72.2599   26.2757  -74.3736 N.am      9 UNK        -0.4218 
     28 C         -71.3093   26.9559  -75.0305 C.2       9 UNK         0.5020 
     29 O         -70.3107   27.4197  -74.4764 O.2       9 UNK        -0.5274 
     30 CA        -71.5452   27.2552  -76.5220 C.3       8 UNK         0.0270 
     31 CB        -70.2358   27.3726  -77.3323 C.3       8 UNK        -0.1976 
     32 N         -72.5134   26.3650  -77.1690 N.am      8 UNK        -0.4313 
     33 C         -72.3545   25.0751  -77.5013 C.2       8 UNK         0.5041 
     34 O         -71.3280   24.4339  -77.2717 O.2       8 UNK        -0.5577 
     35 CA        -73.5275   24.3668  -78.2129 C.3       7 UNK         0.0284 
     36 CB        -73.8958   23.0537  -77.5003 C.3       7 UNK        -0.1958 
     37 N         -74.7297   25.1979  -78.3444 N.am      7 UNK        -0.4454 
     38 C         -74.9057   26.1650  -79.2552 C.2       7 UNK         0.5089 
     39 O         -74.0920   26.4214  -80.1424 O.2       7 UNK        -0.5125 
     40 CA        -76.1799   27.0214  -79.1341 C.3       6 UNK         0.0408 
     41 CB        -77.3168   26.4043  -79.9626 C.3       6 UNK        -0.1791 
     42 N         -76.6328   27.2238  -77.7526 N.am      6 UNK        -0.4762 
     43 C         -75.9395   27.8628  -76.7954 C.2       6 UNK         0.5007 
     44 O         -74.8285   28.3617  -76.9788 O.2       6 UNK        -0.5032 
     45 CA        -76.5532   27.8651  -75.3773 C.3       5 UNK         0.0783 
     46 C46       -77.7544   28.8381  -75.2577 C.3       11 UNK        -0.0857 
     47 S47       -77.2472   30.5586  -74.9514 S.3       11 UNK        -0.2512 
     48 C48       -78.3831   31.0599  -73.6172 C.3       11 UNK         0.0225 
     49 N         -76.9297   26.5161  -74.9545 N.am      5 UNK        -0.4615 
     50 C         -76.1169   25.4537  -74.8974 C.2       4 UNK         0.5053 
     51 O         -74.9146   25.4871  -75.1583 O.2       4 UNK        -0.5105 
     52 CA        -76.7841   24.1107  -74.5663 C.3       4 UNK         0.0263 
     53 CB        -77.0368   23.9701  -73.0562 C.3       4 UNK        -0.1981 
     54 N         -78.0393   23.9463  -75.3049 N.am      4 UNK        -0.4224 
     55 C         -78.1134   23.7617  -76.6317 C.2       3 UNK         0.4895 
     56 O         -77.1307   23.6369  -77.3603 O.2       3 UNK        -0.5091 
     57 CA        -79.5154   23.7525  -77.2617 C.3       3 UNK         0.0250 
     58 CB        -80.1317   22.3462  -77.1999 C.3       3 UNK        -0.1996 
     59 N         -80.4163   24.7254  -76.6382 N.am      3 UNK        -0.4254 
     60 C         -80.2950   26.0540  -76.7880 C.2       2 UNK         0.5004 
     61 O         -79.4363   26.5850  -77.4907 O.2       2 UNK        -0.5226 
     62 CA        -81.2555   26.9505  -75.9848 C.3       2 UNK         0.0269 
     63 CB        -82.5311   27.2325  -76.7939 C.3       2 UNK        -0.1926 
     64 N         -81.6178   26.4058  -74.6722 N.am      2 UNK        -0.4687 
     65 C         -80.7354   26.0952  -73.7125 C.2       1 UNK         0.5165 
     66 O         -79.5215   26.2624  -73.8322 O.2       1 UNK        -0.5079 
     67 H67       -80.9350   20.9587  -72.6894 H         1 UNK         0.0900 
     68 H68       -79.4955   21.4910  -73.5617 H         1 UNK         0.0900 
     69 H69       -79.6530   21.8182  -71.8340 H         1 UNK         0.0900 
     70 H70       -80.1671   23.9720  -71.4339 H         1 UNK         0.2959 
     71 H71       -82.3695   25.3114  -72.5771 H         1 UNK         0.1079 
     72 H72       -81.7548   25.9609  -70.3844 H         1 UNK         0.0837 
     73 H73       -81.4434   27.3406  -71.3912 H         1 UNK         0.0837 
     74 H74       -80.3852   28.4042  -69.6254 H         1 UNK         0.0685 
     75 H75       -79.0536   27.8421  -68.6623 H         1 UNK         0.0685 
     76 H76       -79.6806   29.1291  -72.1654 H         1 UNK         0.1434 
     77 H77       -76.2626   31.7225  -72.0458 H         1 UNK         0.1329 
     78 H78       -77.0686   29.0861  -68.7666 H         1 UNK         0.1335 
     79 H79       -75.1561   32.0415  -69.8202 H         1 UNK         0.0680 
     80 H80       -75.5174   30.9594  -68.5088 H         1 UNK         0.0680 
     81 H81       -73.6745   31.7510  -71.5910 H         1 UNK         0.1032 
     82 H82       -72.1555   30.9345  -71.3786 H         1 UNK         0.1032 
     83 H83       -74.5922   29.6901  -72.7739 H         1 UNK         0.0461 
     84 H84       -73.7787   31.7734  -75.5321 H         1 UNK         0.3453 
     85 H85       -75.0205   31.2100  -74.4476 H         1 UNK         0.3453 
     86 H86       -71.8387   28.6813  -73.0330 H         1 UNK         0.2984 
     87 H87       -71.4202   26.4038  -72.4365 H         1 UNK         0.0554 
     88 H88       -73.0389   24.8325  -71.3863 H         1 UNK         0.0847 
     89 H89       -72.2046   24.0748  -72.7349 H         1 UNK         0.0847 
     90 H90       -73.8659   24.6215  -72.9208 H         1 UNK         0.0847 
     91 H91       -73.0858   25.9699  -74.8853 H         1 UNK         0.3141 
     92 H92       -72.0148   28.2400  -76.5396 H         1 UNK         0.0743 
     93 H93       -69.6437   26.4586  -77.2837 H         1 UNK         0.0784 
     94 H94       -70.4356   27.5902  -78.3814 H         1 UNK         0.0784 
     95 H95       -69.6116   28.1805  -76.9488 H         1 UNK         0.0784 
     96 H96       -73.4158   26.7895  -77.3543 H         1 UNK         0.3213 
     97 H97       -73.1769   24.1130  -79.2155 H         1 UNK         0.0855 
     98 H98       -74.2282   23.2301  -76.4777 H         1 UNK         0.0814 
     99 H99       -73.0409   22.3780  -77.4519 H         1 UNK         0.0814 
    100 H100      -74.6916   22.5262  -78.0261 H         1 UNK         0.0814 
    101 H101      -75.4725   25.0212  -77.6772 H         1 UNK         0.3105 
    102 H102      -75.9535   28.0052  -79.5500 H         1 UNK         0.0547 
    103 H103      -77.0133   26.2630  -81.0007 H         1 UNK         0.0837 
    104 H104      -77.6149   25.4302  -79.5733 H         1 UNK         0.0837 
    105 H105      -78.1978   27.0461  -79.9678 H         1 UNK         0.0837 
    106 H106      -77.5599   26.8671  -77.5286 H         1 UNK         0.3020 
    107 H107      -75.7717   28.1853  -74.6841 H         1 UNK         0.1245 
    108 H108      -78.3905   28.5346  -74.4264 H         1 UNK         0.0781 
    109 H109      -78.3943   28.8061  -76.1411 H         1 UNK         0.0781 
    110 H110      -79.4041   30.7863  -73.8882 H         1 UNK         0.0836 
    111 H111      -78.3741   32.1483  -73.5440 H         1 UNK         0.0836 
    112 H112      -77.8968   26.3925  -74.6612 H         1 UNK         0.3022 
    113 H113      -76.1020   23.3140  -74.8699 H         1 UNK         0.0747 
    114 H114      -77.4363   22.9869  -72.8110 H         1 UNK         0.0793 
    115 H115      -76.1125   24.0906  -72.4915 H         1 UNK         0.0793 
    116 H116      -77.7351   24.7203  -72.6855 H         1 UNK         0.0793 
    117 H117      -78.8941   24.1182  -74.7956 H         1 UNK         0.3047 
    118 H118      -79.4049   24.0234  -78.3141 H         1 UNK         0.0822 
    119 H119      -81.1121   22.3208  -77.6757 H         1 UNK         0.0807 
    120 H120      -80.2470   21.9953  -76.1744 H         1 UNK         0.0807 
    121 H121      -79.5009   21.6239  -77.7200 H         1 UNK         0.0807 
    122 H122      -81.1175   24.3629  -76.0024 H         1 UNK         0.2946 
    123 H123      -80.7424   27.8994  -75.8151 H         1 UNK         0.1144 
    124 H124      -83.1081   26.3236  -76.9693 H         1 UNK         0.0793 
    125 H125      -82.2880   27.6576  -77.7689 H         1 UNK         0.0793 
    126 H126      -83.1760   27.9478  -76.2832 H         1 UNK         0.0793 
    127 H127      -82.5975   26.2131  -74.5187 H         1 UNK         0.2896 
@<TRIPOS>BOND
     1    1    2 1    
     2    1   67 1    
     3    1   68 1    
     4    1   69 1    
     5    2    3 2    
     6    2    4 am   BACKBONE|DICT|INTERRES
     7    4    5 1    
     8    4   70 1    
     9    5    6 1    
    10    5   65 1    
    11    5   71 1    
    12    6    7 1    
    13    6   72 1    
    14    6   73 1    
    15    7    8 1    
    16    8    9 1    
    17    8   74 1    
    18    8   75 1    
    19    9   10 ar   
    20    9   14 ar   
    21   10   11 ar   
    22   10   76 1    
    23   11   12 ar   
    24   11   48 1    
    25   12   13 ar   
    26   12   77 1    
    27   13   14 ar   
    28   13   15 1    
    29   14   78 1    
    30   15   16 1    
    31   15   79 1    
    32   15   80 1    
    33   16   17 1    
    34   17   18 1    
    35   17   81 1    
    36   17   82 1    
    37   18   19 1    
    38   18   22 1    
    39   18   83 1    
    40   19   20 am   BACKBONE|DICT|INTERRES
    41   19   21 2    
    42   20   84 1    
    43   20   85 1    
    44   22   23 am   BACKBONE|DICT|INTERRES
    45   22   86 1    
    46   23   24 2    
    47   23   25 1    
    48   25   26 1    
    49   25   27 1    
    50   25   87 1    
    51   26   88 1    
    52   26   89 1    
    53   26   90 1    
    54   27   28 am   BACKBONE|DICT|INTERRES
    55   27   91 1    
    56   28   29 2    
    57   28   30 1    
    58   30   31 1    
    59   30   32 1    
    60   30   92 1    
    61   31   93 1    
    62   31   94 1    
    63   31   95 1    
    64   32   33 am   BACKBONE|DICT|INTERRES
    65   32   96 1    
    66   33   34 2    
    67   33   35 1    
    68   35   36 1    
    69   35   37 1    
    70   35   97 1    
    71   36   98 1    
    72   36   99 1    
    73   36  100 1    
    74   37   38 am   BACKBONE|DICT|INTERRES
    75   37  101 1    
    76   38   39 2    
    77   38   40 1    
    78   40   41 1    
    79   40   42 1    
    80   40  102 1    
    81   41  103 1    
    82   41  104 1    
    83   41  105 1    
    84   42   43 am   BACKBONE|DICT|INTERRES
    85   42  106 1    
    86   43   44 2    
    87   43   45 1    
    88   45   46 1    
    89   45   49 1    
    90   45  107 1    
    91   46   47 1    
    92   46  108 1    
    93   46  109 1    
    94   47   48 1    
    95   48  110 1    
    96   48  111 1    
    97   49   50 am   BACKBONE|DICT|INTERRES
    98   49  112 1    
    99   50   51 2    
   100   50   52 1    
   101   52   53 1    
   102   52   54 1    
   103   52  113 1    
   104   53  114 1    
   105   53  115 1    
   106   53  116 1    
   107   54   55 am   BACKBONE|DICT|INTERRES
   108   54  117 1    
   109   55   56 2    
   110   55   57 1    
   111   57   58 1    
   112   57   59 1    
   113   57  118 1    
   114   58  119 1    
   115   58  120 1    
   116   58  121 1    
   117   59   60 am   BACKBONE|DICT|INTERRES
   118   59  122 1    
   119   60   61 2    
   120   60   62 1    
   121   62   63 1    
   122   62   64 1    
   123   62  123 1    
   124   63  124 1    
   125   63  125 1    
   126   63  126 1    
   127   64   65 am   BACKBONE|DICT|INTERRES
   128   64  127 1    
   129   65   66 2    
@<TRIPOS>SUBSTRUCTURE
     1 UNK         1 GROUP             0       ****    0 ROOT    
