@<TRIPOS>MOLECULE
3R135
127   129    1
SMALL
USER_CHARGES


@<TRIPOS>ATOM
      1 CA        -82.4788   27.5091  -76.8389 C.3       0 UNK        -0.1998 
      2 C         -81.2791   28.3644  -76.4620 C.2       0 UNK         0.4909 
      3 O         -80.6568   28.9688  -77.3360 O.2       0 UNK        -0.5240 
      4 N         -80.9370   28.4069  -75.1682 N.am      1 UNK        -0.4739 
      5 CA        -79.8151   29.1445  -74.5672 C.3       1 UNK         0.0864 
      6 C6        -80.0607   29.4179  -73.0564 C.3       11 UNK        -0.0881 
      7 S7        -80.6989   27.9821  -72.1194 S.3       11 UNK        -0.2682 
      8 C8        -80.3096   28.4574  -70.4073 C.3       11 UNK         0.0289 
      9 C9        -78.8241   28.3208  -70.1175 C.ar      11 UNK        -0.0687 
     10 C10       -78.2464   27.0512  -70.0353 C.ar      11 UNK        -0.0823 
     11 C11       -76.8786   26.9076  -69.7912 C.ar      11 UNK        -0.0830 
     12 C12       -76.0903   28.0497  -69.6222 C.ar      11 UNK        -0.1021 
     13 C13       -76.6524   29.3284  -69.7148 C.ar      11 UNK        -0.0753 
     14 C14       -78.0269   29.4554  -69.9420 C.ar      11 UNK        -0.0933 
     15 C15       -75.7602   30.5575  -69.5590 C.3       11 UNK         0.0166 
     16 S16       -76.0304   31.8748  -70.8021 S.3       11 UNK        -0.2615 
     17 C17       -76.0628   30.9997  -72.4065 C.3       11 UNK        -0.0865 
     18 CA        -74.6621   30.5824  -72.9381 C.3       10 UNK         0.0862 
     19 C         -74.2427   29.1913  -72.3912 C.2       10 UNK         0.5551 
     20 N         -74.9450   28.1349  -72.7735 N.am      10 UNK        -0.7319 
     21 O         -73.2871   29.0746  -71.6280 O.2       10 UNK        -0.5018 
     22 N         -74.5947   30.6658  -74.4088 N.am      10 UNK        -0.4509 
     23 C         -73.5101   30.3944  -75.1471 C.2       10 UNK         0.4899 
     24 O         -72.4087   30.0841  -74.6866 O.2       10 UNK        -0.4839 
     25 CA        -73.6662   30.5028  -76.6662 C.3       9 UNK         0.0222 
     26 CB        -73.2189   31.8898  -77.1657 C.3       9 UNK        -0.1966 
     27 N         -72.8529   29.4443  -77.2546 N.am      9 UNK        -0.4218 
     28 C         -72.8702   29.0148  -78.5217 C.2       9 UNK         0.5020 
     29 O         -73.5541   29.5173  -79.4138 O.2       9 UNK        -0.5274 
     30 CA        -71.9820   27.7967  -78.8398 C.3       8 UNK         0.0270 
     31 CB        -70.5491   28.2423  -79.1752 C.3       8 UNK        -0.1976 
     32 N         -71.9531   26.8262  -77.7385 N.am      8 UNK        -0.4313 
     33 C         -72.9905   26.0463  -77.4057 C.2       8 UNK         0.5041 
     34 O         -74.0299   25.9781  -78.0652 O.2       8 UNK        -0.5577 
     35 CA        -72.8516   25.2454  -76.1032 C.3       7 UNK         0.0284 
     36 CB        -72.9465   26.1886  -74.8910 C.3       7 UNK        -0.1958 
     37 N         -73.9393   24.2754  -76.0041 N.am      7 UNK        -0.4454 
     38 C         -73.8110   22.9438  -75.9877 C.2       7 UNK         0.5089 
     39 O         -72.7295   22.3544  -76.0347 O.2       7 UNK        -0.5125 
     40 CA        -75.1285   22.1483  -75.8908 C.3       6 UNK         0.0408 
     41 CB        -74.9254   20.6452  -75.6059 C.3       6 UNK        -0.1791 
     42 N         -76.0572   22.7653  -74.9372 N.am      6 UNK        -0.4762 
     43 C         -75.9106   22.9005  -73.6087 C.2       6 UNK         0.5007 
     44 O         -75.0331   22.3349  -72.9562 O.2       6 UNK        -0.5032 
     45 CA        -76.9053   23.8426  -72.8902 C.3       5 UNK         0.0783 
     46 C46       -76.2516   25.2006  -72.5394 C.3       11 UNK        -0.0857 
     47 S47       -75.1367   25.1481  -71.0947 S.3       11 UNK        -0.2512 
     48 C48       -76.2597   25.5178  -69.7054 C.3       11 UNK         0.0225 
     49 N         -78.0977   24.0782  -73.7070 N.am      5 UNK        -0.4615 
     50 C         -79.2060   23.3293  -73.6926 C.2       4 UNK         0.5053 
     51 O         -79.3822   22.3791  -72.9304 O.2       4 UNK        -0.5105 
     52 CA        -80.2996   23.6966  -74.7129 C.3       4 UNK         0.0263 
     53 CB        -81.3111   24.6714  -74.0922 C.3       4 UNK        -0.1981 
     54 N         -79.7607   24.2829  -75.9441 N.am      4 UNK        -0.4224 
     55 C         -79.0500   23.6073  -76.8578 C.2       3 UNK         0.4895 
     56 O         -78.8128   22.4021  -76.7880 O.2       3 UNK        -0.5091 
     57 CA        -78.4782   24.4144  -78.0345 C.3       3 UNK         0.0250 
     58 CB        -79.4516   24.3880  -79.2238 C.3       3 UNK        -0.1996 
     59 N         -78.1480   25.8066  -77.7125 N.am      3 UNK        -0.4254 
     60 C         -77.2225   26.2020  -76.8253 C.2       2 UNK         0.5004 
     61 O         -76.6163   25.4359  -76.0758 O.2       2 UNK        -0.5226 
     62 CA        -76.9749   27.7133  -76.7379 C.3       2 UNK         0.0269 
     63 CB        -76.6657   28.3246  -78.1176 C.3       2 UNK        -0.1926 
     64 N         -78.1527   28.3728  -76.1849 N.am      2 UNK        -0.4687 
     65 C         -78.4415   28.5015  -74.8860 C.2       1 UNK         0.5165 
     66 O         -77.6754   28.1477  -73.9884 O.2       1 UNK        -0.5079 
     67 H67       -82.9633   27.0775  -75.9633 H         1 UNK         0.0900 
     68 H68       -83.2155   28.1116  -77.3694 H         1 UNK         0.0900 
     69 H69       -82.1695   26.6948  -77.4936 H         1 UNK         0.0900 
     70 H70       -81.4830   27.8851  -74.4962 H         1 UNK         0.2959 
     71 H71       -79.7804   30.1239  -75.0502 H         1 UNK         0.1079 
     72 H72       -80.8005   30.2136  -72.9571 H         1 UNK         0.0837 
     73 H73       -79.1599   29.8042  -72.5782 H         1 UNK         0.0837 
     74 H74       -80.8679   27.8134  -69.7264 H         1 UNK         0.0685 
     75 H75       -80.6567   29.4753  -70.2229 H         1 UNK         0.0685 
     76 H76       -78.8653   26.1758  -70.1779 H         1 UNK         0.1434 
     77 H77       -75.0292   27.9388  -69.4438 H         1 UNK         0.1329 
     78 H78       -78.4702   30.4395  -70.0066 H         1 UNK         0.1335 
     79 H79       -74.7081   30.2719  -69.5898 H         1 UNK         0.0680 
     80 H80       -75.9271   30.9806  -68.5678 H         1 UNK         0.0680 
     81 H81       -76.7520   30.1555  -72.3619 H         1 UNK         0.1032 
     82 H82       -76.5269   31.6986  -73.1035 H         1 UNK         0.1032 
     83 H83       -73.9314   31.3071  -72.5730 H         1 UNK         0.0461 
     84 H84       -75.7940   28.2349  -73.3189 H         1 UNK         0.3453 
     85 H85       -74.7061   27.2369  -72.3838 H         1 UNK         0.3453 
     86 H86       -75.4521   30.9095  -74.8809 H         1 UNK         0.2984 
     87 H87       -74.7102   30.3367  -76.9309 H         1 UNK         0.0554 
     88 H88       -73.7965   32.6822  -76.6882 H         1 UNK         0.0847 
     89 H89       -73.3598   31.9943  -78.2414 H         1 UNK         0.0847 
     90 H90       -72.1665   32.0752  -76.9468 H         1 UNK         0.0847 
     91 H91       -72.2491   28.9829  -76.5860 H         1 UNK         0.3141 
     92 H92       -72.3989   27.3036  -79.7210 H         1 UNK         0.0743 
     93 H93       -70.5468   28.9494  -80.0060 H         1 UNK         0.0784 
     94 H94       -70.0664   28.7331  -78.3290 H         1 UNK         0.0784 
     95 H95       -69.9295   27.3956  -79.4715 H         1 UNK         0.0784 
     96 H96       -71.1212   26.8075  -77.1654 H         1 UNK         0.3213 
     97 H97       -71.8818   24.7434  -76.1010 H         1 UNK         0.0855 
     98 H98       -73.8683   26.7711  -74.9135 H         1 UNK         0.0814 
     99 H99       -72.1159   26.8946  -74.8636 H         1 UNK         0.0814 
    100 H100      -72.9274   25.6337  -73.9526 H         1 UNK         0.0814 
    101 H101      -74.8767   24.6711  -76.0466 H         1 UNK         0.3105 
    102 H102      -75.6059   22.2328  -76.8682 H         1 UNK         0.0547 
    103 H103      -75.8794   20.1233  -75.5327 H         1 UNK         0.0837 
    104 H104      -74.3755   20.4740  -74.6804 H         1 UNK         0.0837 
    105 H105      -74.3581   20.1726  -76.4083 H         1 UNK         0.0837 
    106 H106      -76.8016   23.3020  -75.3626 H         1 UNK         0.3020 
    107 H107      -77.2065   23.3508  -71.9624 H         1 UNK         0.1245 
    108 H108      -77.0203   25.9503  -72.3472 H         1 UNK         0.0781 
    109 H109      -75.6948   25.5817  -73.3974 H         1 UNK         0.0781 
    110 H110      -75.6997   25.4370  -68.7728 H         1 UNK         0.0836 
    111 H111      -77.0332   24.7496  -69.6608 H         1 UNK         0.0836 
    112 H112      -78.0241   24.8321  -74.3773 H         1 UNK         0.3022 
    113 H113      -80.8269   22.7768  -74.9755 H         1 UNK         0.0747 
    114 H114      -82.1421   24.8676  -74.7696 H         1 UNK         0.0793 
    115 H115      -81.7332   24.2648  -73.1720 H         1 UNK         0.0793 
    116 H116      -80.8442   25.6236  -73.8430 H         1 UNK         0.0793 
    117 H117      -79.9039   25.2711  -76.0864 H         1 UNK         0.3047 
    118 H118      -77.5513   23.9240  -78.3405 H         1 UNK         0.0822 
    119 H119      -79.0175   24.8640  -80.1033 H         1 UNK         0.0807 
    120 H120      -80.3880   24.8976  -78.9927 H         1 UNK         0.0807 
    121 H121      -79.6991   23.3628  -79.5034 H         1 UNK         0.0807 
    122 H122      -78.6064   26.5149  -78.2668 H         1 UNK         0.2946 
    123 H123      -76.1151   27.8771  -76.0838 H         1 UNK         0.1144 
    124 H124      -75.7925   27.8540  -78.5691 H         1 UNK         0.0793 
    125 H125      -76.4541   29.3900  -78.0412 H         1 UNK         0.0793 
    126 H126      -77.4931   28.2143  -78.8189 H         1 UNK         0.0793 
    127 H127      -78.8717   28.6678  -76.8417 H         1 UNK         0.2896 
@<TRIPOS>BOND
     1    1    2 1    
     2    1   67 1    
     3    1   68 1    
     4    1   69 1    
     5    2    3 2    
     6    2    4 am   BACKBONE|DICT|INTERRES
     7    4    5 1    
     8    4   70 1    
     9    5    6 1    
    10    5   65 1    
    11    5   71 1    
    12    6    7 1    
    13    6   72 1    
    14    6   73 1    
    15    7    8 1    
    16    8    9 1    
    17    8   74 1    
    18    8   75 1    
    19    9   10 ar   
    20    9   14 ar   
    21   10   11 ar   
    22   10   76 1    
    23   11   12 ar   
    24   11   48 1    
    25   12   13 ar   
    26   12   77 1    
    27   13   14 ar   
    28   13   15 1    
    29   14   78 1    
    30   15   16 1    
    31   15   79 1    
    32   15   80 1    
    33   16   17 1    
    34   17   18 1    
    35   17   81 1    
    36   17   82 1    
    37   18   19 1    
    38   18   22 1    
    39   18   83 1    
    40   19   20 am   BACKBONE|DICT|INTERRES
    41   19   21 2    
    42   20   84 1    
    43   20   85 1    
    44   22   23 am   BACKBONE|DICT|INTERRES
    45   22   86 1    
    46   23   24 2    
    47   23   25 1    
    48   25   26 1    
    49   25   27 1    
    50   25   87 1    
    51   26   88 1    
    52   26   89 1    
    53   26   90 1    
    54   27   28 am   BACKBONE|DICT|INTERRES
    55   27   91 1    
    56   28   29 2    
    57   28   30 1    
    58   30   31 1    
    59   30   32 1    
    60   30   92 1    
    61   31   93 1    
    62   31   94 1    
    63   31   95 1    
    64   32   33 am   BACKBONE|DICT|INTERRES
    65   32   96 1    
    66   33   34 2    
    67   33   35 1    
    68   35   36 1    
    69   35   37 1    
    70   35   97 1    
    71   36   98 1    
    72   36   99 1    
    73   36  100 1    
    74   37   38 am   BACKBONE|DICT|INTERRES
    75   37  101 1    
    76   38   39 2    
    77   38   40 1    
    78   40   41 1    
    79   40   42 1    
    80   40  102 1    
    81   41  103 1    
    82   41  104 1    
    83   41  105 1    
    84   42   43 am   BACKBONE|DICT|INTERRES
    85   42  106 1    
    86   43   44 2    
    87   43   45 1    
    88   45   46 1    
    89   45   49 1    
    90   45  107 1    
    91   46   47 1    
    92   46  108 1    
    93   46  109 1    
    94   47   48 1    
    95   48  110 1    
    96   48  111 1    
    97   49   50 am   BACKBONE|DICT|INTERRES
    98   49  112 1    
    99   50   51 2    
   100   50   52 1    
   101   52   53 1    
   102   52   54 1    
   103   52  113 1    
   104   53  114 1    
   105   53  115 1    
   106   53  116 1    
   107   54   55 am   BACKBONE|DICT|INTERRES
   108   54  117 1    
   109   55   56 2    
   110   55   57 1    
   111   57   58 1    
   112   57   59 1    
   113   57  118 1    
   114   58  119 1    
   115   58  120 1    
   116   58  121 1    
   117   59   60 am   BACKBONE|DICT|INTERRES
   118   59  122 1    
   119   60   61 2    
   120   60   62 1    
   121   62   63 1    
   122   62   64 1    
   123   62  123 1    
   124   63  124 1    
   125   63  125 1    
   126   63  126 1    
   127   64   65 am   BACKBONE|DICT|INTERRES
   128   64  127 1    
   129   65   66 2    
@<TRIPOS>SUBSTRUCTURE
     1 UNK         1 GROUP             0       ****    0 ROOT    
