@<TRIPOS>MOLECULE
3R135
127   129    1
SMALL
USER_CHARGES


@<TRIPOS>ATOM
      1 CA        -80.2648   26.7212  -77.8201 C.3       0 UNK        -0.1998 
      2 C         -80.1460   26.9907  -76.3280 C.2       0 UNK         0.4909 
      3 O         -79.0362   27.2105  -75.8443 O.2       0 UNK        -0.5240 
      4 N         -81.2783   26.9708  -75.6140 N.am      1 UNK        -0.4739 
      5 CA        -81.3823   27.1493  -74.1647 C.3       1 UNK         0.0864 
      6 C6        -81.9729   28.5339  -73.7791 C.3       11 UNK        -0.0881 
      7 S7        -80.8294   29.9315  -74.0408 S.3       11 UNK        -0.2682 
      8 C8        -80.5421   30.5086  -72.3319 C.3       11 UNK         0.0289 
      9 C9        -79.2969   29.8806  -71.7215 C.ar      11 UNK        -0.0687 
     10 C10       -79.2732   28.5224  -71.3841 C.ar      11 UNK        -0.0823 
     11 C11       -78.1031   27.9362  -70.8925 C.ar      11 UNK        -0.0830 
     12 C12       -76.9777   28.7333  -70.6645 C.ar      11 UNK        -0.1021 
     13 C13       -76.9901   30.0894  -70.9943 C.ar      11 UNK        -0.0753 
     14 C14       -78.1520   30.6593  -71.5208 C.ar      11 UNK        -0.0933 
     15 C15       -75.7289   30.9187  -70.8271 C.3       11 UNK         0.0166 
     16 S16       -74.7743   30.9500  -72.3793 S.3       11 UNK        -0.2615 
     17 C17       -73.0587   30.7609  -71.7752 C.3       11 UNK        -0.0865 
     18 CA        -72.3993   29.4137  -72.1821 C.3       10 UNK         0.0862 
     19 C         -73.0271   28.1710  -71.4901 C.2       10 UNK         0.5551 
     20 N         -73.3168   27.0886  -72.2018 N.am      10 UNK        -0.7319 
     21 O         -73.2233   28.1751  -70.2775 O.2       10 UNK        -0.5018 
     22 N         -72.2449   29.2851  -73.6403 N.am      10 UNK        -0.4509 
     23 C         -71.2367   29.8107  -74.3453 C.2       10 UNK         0.4899 
     24 O         -70.3148   30.4583  -73.8449 O.2       10 UNK        -0.4839 
     25 CA        -71.2755   29.5754  -75.8659 C.3       9 UNK         0.0222 
     26 CB        -70.0136   30.0810  -76.5973 C.3       9 UNK        -0.1966 
     27 N         -71.5595   28.1797  -76.2097 N.am      9 UNK        -0.4218 
     28 C         -70.8271   27.0870  -75.9438 C.2       9 UNK         0.5020 
     29 O         -69.7442   27.1070  -75.3574 O.2       9 UNK        -0.5274 
     30 CA        -71.3972   25.7292  -76.4085 C.3       8 UNK         0.0270 
     31 CB        -71.8705   24.8961  -75.2056 C.3       8 UNK        -0.1976 
     32 N         -72.5020   25.8510  -77.3653 N.am      8 UNK        -0.4313 
     33 C         -72.3762   26.2631  -78.6352 C.2       8 UNK         0.5041 
     34 O         -71.2957   26.4841  -79.1827 O.2       8 UNK        -0.5577 
     35 CA        -73.6810   26.5177  -79.4059 C.3       7 UNK         0.0284 
     36 CB        -74.2047   25.2152  -80.0292 C.3       7 UNK        -0.1958 
     37 N         -74.7092   27.1182  -78.5483 N.am      7 UNK        -0.4454 
     38 C         -74.6935   28.3957  -78.1380 C.2       7 UNK         0.5089 
     39 O         -73.8385   29.2118  -78.4798 O.2       7 UNK        -0.5125 
     40 CA        -75.7927   28.8338  -77.1545 C.3       6 UNK         0.0408 
     41 CB        -77.0393   29.3107  -77.9152 C.3       6 UNK        -0.1791 
     42 N         -76.1757   27.7836  -76.2113 N.am      6 UNK        -0.4762 
     43 C         -75.3770   27.2618  -75.2696 C.2       6 UNK         0.5007 
     44 O         -74.2195   27.6281  -75.0591 O.2       6 UNK        -0.5032 
     45 CA        -75.9752   26.1123  -74.4401 C.3       5 UNK         0.0783 
     46 C46       -76.8120   26.7125  -73.2878 C.3       11 UNK        -0.0857 
     47 S47       -77.7709   25.5253  -72.2787 S.3       11 UNK        -0.2512 
     48 C48       -78.0097   26.4270  -70.6993 C.3       11 UNK         0.0225 
     49 N         -76.7258   25.1683  -75.2700 N.am      5 UNK        -0.4615 
     50 C         -76.2368   24.4425  -76.2833 C.2       4 UNK         0.5053 
     51 O         -75.0762   24.5425  -76.6874 O.2       4 UNK        -0.5105 
     52 CA        -77.2071   23.4343  -76.9396 C.3       4 UNK         0.0263 
     53 CB        -76.5461   22.6029  -78.0536 C.3       4 UNK        -0.1981 
     54 N         -77.7984   22.5191  -75.9561 N.am      4 UNK        -0.4224 
     55 C         -78.7738   22.8539  -75.1041 C.2       3 UNK         0.4895 
     56 O         -79.3020   23.9710  -75.0987 O.2       3 UNK        -0.5091 
     57 CA        -79.1932   21.8008  -74.0596 C.3       3 UNK         0.0250 
     58 CB        -78.0221   21.4480  -73.1250 C.3       3 UNK        -0.1996 
     59 N         -80.2803   22.3534  -73.2547 N.am      3 UNK        -0.4254 
     60 C         -81.5575   22.3883  -73.6538 C.2       2 UNK         0.5004 
     61 O         -82.0514   21.6323  -74.4912 O.2       2 UNK        -0.5226 
     62 CA        -82.3643   23.5694  -73.1160 C.3       2 UNK         0.0269 
     63 CB        -82.5078   23.5314  -71.5809 C.3       2 UNK        -0.1926 
     64 N         -81.6932   24.7949  -73.5599 N.am      2 UNK        -0.4687 
     65 C         -82.2587   26.0024  -73.6255 C.2       1 UNK         0.5165 
     66 O         -83.4329   26.2144  -73.3149 O.2       1 UNK        -0.5079 
     67 H67       -79.9294   27.5903  -78.3849 H         1 UNK         0.0900 
     68 H68       -81.2900   26.4990  -78.1150 H         1 UNK         0.0900 
     69 H69       -79.6413   25.8717  -78.0965 H         1 UNK         0.0900 
     70 H70       -82.1512   26.7597  -76.0776 H         1 UNK         0.2959 
     71 H71       -80.3971   27.0428  -73.7051 H         1 UNK         0.1079 
     72 H72       -82.8802   28.7310  -74.3533 H         1 UNK         0.0837 
     73 H73       -82.2874   28.5338  -72.7342 H         1 UNK         0.0837 
     74 H74       -81.4079   30.3134  -71.6984 H         1 UNK         0.0685 
     75 H75       -80.4383   31.5944  -72.3589 H         1 UNK         0.0685 
     76 H76       -80.1462   27.9097  -71.5523 H         1 UNK         0.1434 
     77 H77       -76.0658   28.2841  -70.2939 H         1 UNK         0.1329 
     78 H78       -78.1542   31.7054  -71.7950 H         1 UNK         0.1335 
     79 H79       -75.1314   30.5059  -70.0131 H         1 UNK         0.0680 
     80 H80       -75.9803   31.9400  -70.5371 H         1 UNK         0.0680 
     81 H81       -73.0159   30.8920  -70.6930 H         1 UNK         0.1032 
     82 H82       -72.4725   31.5872  -72.1797 H         1 UNK         0.1032 
     83 H83       -71.3912   29.4297  -71.7633 H         1 UNK         0.0461 
     84 H84       -73.6890   26.2825  -71.7268 H         1 UNK         0.3453 
     85 H85       -73.1810   27.0786  -73.2003 H         1 UNK         0.3453 
     86 H86       -72.9795   28.7785  -74.1266 H         1 UNK         0.2984 
     87 H87       -72.1220   30.1534  -76.2393 H         1 UNK         0.0554 
     88 H88       -70.0887   29.9198  -77.6727 H         1 UNK         0.0847 
     89 H89       -69.1110   29.5808  -76.2449 H         1 UNK         0.0847 
     90 H90       -69.8738   31.1510  -76.4394 H         1 UNK         0.0847 
     91 H91       -72.4586   28.0235  -76.6449 H         1 UNK         0.3141 
     92 H92       -70.5841   25.1892  -76.8979 H         1 UNK         0.0743 
     93 H93       -72.6973   25.3752  -74.6827 H         1 UNK         0.0784 
     94 H94       -72.2032   23.9055  -75.5167 H         1 UNK         0.0784 
     95 H95       -71.0647   24.7558  -74.4838 H         1 UNK         0.0784 
     96 H96       -73.4298   25.6107  -77.0260 H         1 UNK         0.3213 
     97 H97       -73.4630   27.2167  -80.2167 H         1 UNK         0.0855 
     98 H98       -74.3244   24.4320  -79.2816 H         1 UNK         0.0814 
     99 H99       -73.5052   24.8387  -80.7766 H         1 UNK         0.0814 
    100 H100      -75.1631   25.3631  -80.5270 H         1 UNK         0.0814 
    101 H101      -75.4206   26.5030  -78.1801 H         1 UNK         0.3105 
    102 H102      -75.4042   29.6733  -76.5741 H         1 UNK         0.0547 
    103 H103      -76.7927   30.1247  -78.5982 H         1 UNK         0.0837 
    104 H104      -77.4821   28.5092  -78.5074 H         1 UNK         0.0837 
    105 H105      -77.8030   29.6814  -77.2309 H         1 UNK         0.0837 
    106 H106      -77.1423   27.4636  -76.2382 H         1 UNK         0.3020 
    107 H107      -75.1450   25.5536  -74.0046 H         1 UNK         0.1245 
    108 H108      -77.5201   27.4544  -73.6637 H         1 UNK         0.0781 
    109 H109      -76.1276   27.2492  -72.6321 H         1 UNK         0.0781 
    110 H110      -77.1829   26.1834  -70.0304 H         1 UNK         0.0836 
    111 H111      -78.9130   26.0588  -70.2109 H         1 UNK         0.0836 
    112 H112      -77.7049   25.0424  -75.0267 H         1 UNK         0.3022 
    113 H113      -78.0096   24.0163  -77.3976 H         1 UNK         0.0747 
    114 H114      -77.2405   21.8736  -78.4711 H         1 UNK         0.0793 
    115 H115      -76.2280   23.2415  -78.8765 H         1 UNK         0.0793 
    116 H116      -75.6688   22.0639  -77.6932 H         1 UNK         0.0793 
    117 H117      -77.3817   21.6018  -75.8867 H         1 UNK         0.3047 
    118 H118      -79.5301   20.9010  -74.5789 H         1 UNK         0.0822 
    119 H119      -77.2119   20.9603  -73.6678 H         1 UNK         0.0807 
    120 H120      -78.3375   20.7614  -72.3391 H         1 UNK         0.0807 
    121 H121      -77.6058   22.3351  -72.6452 H         1 UNK         0.0807 
    122 H122      -79.9963   23.0407  -72.5714 H         1 UNK         0.2946 
    123 H123      -83.3591   23.5236  -73.5656 H         1 UNK         0.1144 
    124 H124      -82.9236   22.5781  -71.2520 H         1 UNK         0.0793 
    125 H125      -83.1803   24.3131  -71.2276 H         1 UNK         0.0793 
    126 H126      -81.5513   23.6654  -71.0749 H         1 UNK         0.0793 
    127 H127      -80.7658   24.6668  -73.9614 H         1 UNK         0.2896 
@<TRIPOS>BOND
     1    1    2 1    
     2    1   67 1    
     3    1   68 1    
     4    1   69 1    
     5    2    3 2    
     6    2    4 am   BACKBONE|DICT|INTERRES
     7    4    5 1    
     8    4   70 1    
     9    5    6 1    
    10    5   65 1    
    11    5   71 1    
    12    6    7 1    
    13    6   72 1    
    14    6   73 1    
    15    7    8 1    
    16    8    9 1    
    17    8   74 1    
    18    8   75 1    
    19    9   10 ar   
    20    9   14 ar   
    21   10   11 ar   
    22   10   76 1    
    23   11   12 ar   
    24   11   48 1    
    25   12   13 ar   
    26   12   77 1    
    27   13   14 ar   
    28   13   15 1    
    29   14   78 1    
    30   15   16 1    
    31   15   79 1    
    32   15   80 1    
    33   16   17 1    
    34   17   18 1    
    35   17   81 1    
    36   17   82 1    
    37   18   19 1    
    38   18   22 1    
    39   18   83 1    
    40   19   20 am   BACKBONE|DICT|INTERRES
    41   19   21 2    
    42   20   84 1    
    43   20   85 1    
    44   22   23 am   BACKBONE|DICT|INTERRES
    45   22   86 1    
    46   23   24 2    
    47   23   25 1    
    48   25   26 1    
    49   25   27 1    
    50   25   87 1    
    51   26   88 1    
    52   26   89 1    
    53   26   90 1    
    54   27   28 am   BACKBONE|DICT|INTERRES
    55   27   91 1    
    56   28   29 2    
    57   28   30 1    
    58   30   31 1    
    59   30   32 1    
    60   30   92 1    
    61   31   93 1    
    62   31   94 1    
    63   31   95 1    
    64   32   33 am   BACKBONE|DICT|INTERRES
    65   32   96 1    
    66   33   34 2    
    67   33   35 1    
    68   35   36 1    
    69   35   37 1    
    70   35   97 1    
    71   36   98 1    
    72   36   99 1    
    73   36  100 1    
    74   37   38 am   BACKBONE|DICT|INTERRES
    75   37  101 1    
    76   38   39 2    
    77   38   40 1    
    78   40   41 1    
    79   40   42 1    
    80   40  102 1    
    81   41  103 1    
    82   41  104 1    
    83   41  105 1    
    84   42   43 am   BACKBONE|DICT|INTERRES
    85   42  106 1    
    86   43   44 2    
    87   43   45 1    
    88   45   46 1    
    89   45   49 1    
    90   45  107 1    
    91   46   47 1    
    92   46  108 1    
    93   46  109 1    
    94   47   48 1    
    95   48  110 1    
    96   48  111 1    
    97   49   50 am   BACKBONE|DICT|INTERRES
    98   49  112 1    
    99   50   51 2    
   100   50   52 1    
   101   52   53 1    
   102   52   54 1    
   103   52  113 1    
   104   53  114 1    
   105   53  115 1    
   106   53  116 1    
   107   54   55 am   BACKBONE|DICT|INTERRES
   108   54  117 1    
   109   55   56 2    
   110   55   57 1    
   111   57   58 1    
   112   57   59 1    
   113   57  118 1    
   114   58  119 1    
   115   58  120 1    
   116   58  121 1    
   117   59   60 am   BACKBONE|DICT|INTERRES
   118   59  122 1    
   119   60   61 2    
   120   60   62 1    
   121   62   63 1    
   122   62   64 1    
   123   62  123 1    
   124   63  124 1    
   125   63  125 1    
   126   63  126 1    
   127   64   65 am   BACKBONE|DICT|INTERRES
   128   64  127 1    
   129   65   66 2    
@<TRIPOS>SUBSTRUCTURE
     1 UNK         1 GROUP             0       ****    0 ROOT    
