@<TRIPOS>MOLECULE
3R135
127   129    1
SMALL
USER_CHARGES


@<TRIPOS>ATOM
      1 CA        -81.8966   24.9617  -71.6209 C.3       0 UNK        -0.1998 
      2 C         -82.4985   26.0939  -72.4369 C.2       0 UNK         0.4909 
      3 O         -83.4150   25.8569  -73.2245 O.2       0 UNK        -0.5240 
      4 N         -82.0052   27.3245  -72.2446 N.am      1 UNK        -0.4739 
      5 CA        -82.5173   28.5345  -72.9052 C.3       1 UNK         0.0864 
      6 C6        -82.1534   29.8407  -72.1501 C.3       11 UNK        -0.0881 
      7 S7        -82.4245   29.7256  -70.3438 S.3       11 UNK        -0.2682 
      8 C8        -80.8020   30.1958  -69.6501 C.3       11 UNK         0.0289 
      9 C9        -79.6324   29.4419  -70.2737 C.ar      11 UNK        -0.0687 
     10 C10       -79.4755   28.0672  -70.0695 C.ar      11 UNK        -0.0823 
     11 C11       -78.4016   27.3805  -70.6488 C.ar      11 UNK        -0.0830 
     12 C12       -77.4753   28.0858  -71.4254 C.ar      11 UNK        -0.1021 
     13 C13       -77.6192   29.4604  -71.6312 C.ar      11 UNK        -0.0753 
     14 C14       -78.6979   30.1320  -71.0520 C.ar      11 UNK        -0.0933 
     15 C15       -76.6106   30.2244  -72.4743 C.3       11 UNK         0.0166 
     16 S16       -75.1911   30.7517  -71.4639 S.3       11 UNK        -0.2615 
     17 C17       -74.3386   31.9614  -72.5422 C.3       11 UNK        -0.0865 
     18 CA        -74.1172   31.5155  -74.0139 C.3       10 UNK         0.0862 
     19 C         -73.3594   32.6075  -74.8257 C.2       10 UNK         0.5551 
     20 N         -72.2166   32.3148  -75.4341 N.am      10 UNK        -0.7319 
     21 O         -73.8225   33.7425  -74.9071 O.2       10 UNK        -0.5018 
     22 N         -73.5315   30.1673  -74.0882 N.am      10 UNK        -0.4509 
     23 C         -73.6653   29.3395  -75.1285 C.2       10 UNK         0.4899 
     24 O         -74.2448   29.6378  -76.1746 O.2       10 UNK        -0.4839 
     25 CA        -73.1051   27.9220  -74.9225 C.3       9 UNK         0.0222 
     26 CB        -74.0239   27.1293  -73.9746 C.3       9 UNK        -0.1966 
     27 N         -72.9564   27.1967  -76.1884 N.am      9 UNK        -0.4218 
     28 C         -72.0159   27.4644  -77.1070 C.2       9 UNK         0.5020 
     29 O         -71.1157   28.2895  -76.9354 O.2       9 UNK        -0.5274 
     30 CA        -72.0786   26.6628  -78.4192 C.3       8 UNK         0.0270 
     31 CB        -70.8168   26.8200  -79.2902 C.3       8 UNK        -0.1976 
     32 N         -72.2915   25.2503  -78.1226 N.am      8 UNK        -0.4313 
     33 C         -73.1034   24.4109  -78.7700 C.2       8 UNK         0.5041 
     34 O         -73.7615   24.7256  -79.7625 O.2       8 UNK        -0.5577 
     35 CA        -73.2169   22.9734  -78.2197 C.3       7 UNK         0.0284 
     36 CB        -72.1231   22.0697  -78.8212 C.3       7 UNK        -0.1958 
     37 N         -73.2553   22.8606  -76.7504 N.am      7 UNK        -0.4454 
     38 C         -72.3132   23.1823  -75.8499 C.2       7 UNK         0.5089 
     39 O         -71.2066   23.6343  -76.1477 O.2       7 UNK        -0.5125 
     40 CA        -72.6994   23.0254  -74.3724 C.3       6 UNK         0.0408 
     41 CB        -71.7626   23.7937  -73.4179 C.3       6 UNK        -0.1791 
     42 N         -74.0899   23.4375  -74.1724 N.am      6 UNK        -0.4762 
     43 C         -74.9126   22.9263  -73.2471 C.2       6 UNK         0.5007 
     44 O         -74.5590   22.1025  -72.4023 O.2       6 UNK        -0.5032 
     45 CA        -76.3856   23.3935  -73.2702 C.3       5 UNK         0.0783 
     46 C46       -76.5785   24.5571  -72.2682 C.3       11 UNK        -0.0857 
     47 S47       -78.3361   24.9147  -71.9477 S.3       11 UNK        -0.2512 
     48 C48       -78.2278   25.8862  -70.4068 C.3       11 UNK         0.0225 
     49 N         -76.8748   23.7430  -74.6131 N.am      5 UNK        -0.4615 
     50 C         -76.8510   22.9462  -75.6930 C.2       4 UNK         0.5053 
     51 O         -76.4362   21.7874  -75.6757 O.2       4 UNK        -0.5105 
     52 CA        -77.3304   23.5283  -77.0363 C.3       4 UNK         0.0263 
     53 CB        -78.7152   22.9649  -77.3948 C.3       4 UNK        -0.1981 
     54 N         -77.3852   24.9903  -77.1102 N.am      4 UNK        -0.4224 
     55 C         -76.3747   25.8481  -76.9084 C.2       3 UNK         0.4895 
     56 O         -75.2352   25.5063  -76.5862 O.2       3 UNK        -0.5091 
     57 CA        -76.6934   27.3472  -77.0692 C.3       3 UNK         0.0250 
     58 CB        -76.1324   27.8719  -78.3989 C.3       3 UNK        -0.1996 
     59 N         -78.1212   27.6779  -76.9901 N.am      3 UNK        -0.4254 
     60 C         -78.8778   27.5341  -75.8944 C.2       2 UNK         0.5004 
     61 O         -78.4548   27.0931  -74.8229 O.2       2 UNK        -0.5226 
     62 CA        -80.3600   27.8961  -76.0441 C.3       2 UNK         0.0269 
     63 CB        -81.1008   26.8499  -76.9005 C.3       2 UNK        -0.1926 
     64 N         -80.9608   27.9571  -74.7174 N.am      2 UNK        -0.4687 
     65 C         -82.0712   28.6232  -74.3799 C.2       1 UNK         0.5165 
     66 O         -82.7348   29.2896  -75.1758 O.2       1 UNK        -0.5079 
     67 H67       -81.3420   24.2850  -72.2702 H         1 UNK         0.0900 
     68 H68       -81.2206   25.3323  -70.8517 H         1 UNK         0.0900 
     69 H69       -82.6846   24.3926  -71.1285 H         1 UNK         0.0900 
     70 H70       -81.2522   27.4746  -71.5879 H         1 UNK         0.2959 
     71 H71       -83.6075   28.4617  -72.9153 H         1 UNK         0.1079 
     72 H72       -82.7631   30.6647  -72.5254 H         1 UNK         0.0837 
     73 H73       -81.1231   30.1300  -72.3561 H         1 UNK         0.0837 
     74 H74       -80.6736   31.2726  -69.7717 H         1 UNK         0.0685 
     75 H75       -80.8130   30.0122  -68.5749 H         1 UNK         0.0685 
     76 H76       -80.1909   27.5377  -69.4547 H         1 UNK         0.1434 
     77 H77       -76.6386   27.5673  -71.8701 H         1 UNK         0.1329 
     78 H78       -78.8083   31.1965  -71.2081 H         1 UNK         0.1335 
     79 H79       -76.2675   29.5957  -73.2974 H         1 UNK         0.0680 
     80 H80       -77.0835   31.0986  -72.9246 H         1 UNK         0.0680 
     81 H81       -74.9137   32.8891  -72.5156 H         1 UNK         0.1032 
     82 H82       -73.3799   32.1953  -72.0754 H         1 UNK         0.1032 
     83 H83       -75.1022   31.4617  -74.4809 H         1 UNK         0.0461 
     84 H84       -71.8412   31.3808  -75.3884 H         1 UNK         0.3453 
     85 H85       -71.7369   33.0288  -75.9592 H         1 UNK         0.3453 
     86 H86       -73.0465   29.8510  -73.2613 H         1 UNK         0.2984 
     87 H87       -72.1196   28.0043  -74.4593 H         1 UNK         0.0554 
     88 H88       -73.6587   26.1176  -73.8190 H         1 UNK         0.0847 
     89 H89       -75.0441   27.0634  -74.3518 H         1 UNK         0.0847 
     90 H90       -74.0778   27.6004  -72.9922 H         1 UNK         0.0847 
     91 H91       -73.6904   26.5303  -76.4194 H         1 UNK         0.3141 
     92 H92       -72.9273   27.0520  -78.9830 H         1 UNK         0.0743 
     93 H93       -69.9249   26.4661  -78.7716 H         1 UNK         0.0784 
     94 H94       -70.9071   26.2606  -80.2215 H         1 UNK         0.0784 
     95 H95       -70.6508   27.8647  -79.5560 H         1 UNK         0.0784 
     96 H96       -71.7815   24.8720  -77.3246 H         1 UNK         0.3213 
     97 H97       -74.1794   22.5914  -78.5639 H         1 UNK         0.0855 
     98 H98       -71.1220   22.3909  -78.5322 H         1 UNK         0.0814 
     99 H99       -72.1641   22.0841  -79.9112 H         1 UNK         0.0814 
    100 H100      -72.2472   21.0336  -78.5064 H         1 UNK         0.0814 
    101 H101      -74.1264   22.5043  -76.3790 H         1 UNK         0.3105 
    102 H102      -72.6109   21.9596  -74.1514 H         1 UNK         0.0547 
    103 H103      -70.7431   23.4126  -73.4865 H         1 UNK         0.0837 
    104 H104      -71.7244   24.8568  -73.6547 H         1 UNK         0.0837 
    105 H105      -72.0743   23.6899  -72.3788 H         1 UNK         0.0837 
    106 H106      -74.4624   24.1060  -74.8379 H         1 UNK         0.3020 
    107 H107      -76.9789   22.5423  -72.9288 H         1 UNK         0.1245 
    108 H108      -76.0916   25.4620  -72.6327 H         1 UNK         0.0781 
    109 H109      -76.1071   24.3148  -71.3134 H         1 UNK         0.0781 
    110 H110      -77.2750   25.7137  -69.9053 H         1 UNK         0.0836 
    111 H111      -78.9923   25.5196  -69.7205 H         1 UNK         0.0836 
    112 H112      -77.2550   24.6747  -74.7131 H         1 UNK         0.3022 
    113 H113      -76.6192   23.1980  -77.7959 H         1 UNK         0.0747 
    114 H114      -79.0252   23.2741  -78.3933 H         1 UNK         0.0793 
    115 H115      -78.7096   21.8739  -77.3852 H         1 UNK         0.0793 
    116 H116      -79.4787   23.2928  -76.6879 H         1 UNK         0.0793 
    117 H117      -78.2789   25.3864  -77.3586 H         1 UNK         0.3047 
    118 H118      -76.1939   27.8710  -76.2540 H         1 UNK         0.0822 
    119 H119      -76.6027   27.3914  -79.2577 H         1 UNK         0.0807 
    120 H120      -75.0616   27.6860  -78.4668 H         1 UNK         0.0807 
    121 H121      -76.2729   28.9491  -78.4913 H         1 UNK         0.0807 
    122 H122      -78.5449   28.0420  -77.8320 H         1 UNK         0.2946 
    123 H123      -80.4278   28.8798  -76.5144 H         1 UNK         0.1144 
    124 H124      -82.1556   27.1021  -77.0113 H         1 UNK         0.0793 
    125 H125      -81.0431   25.8549  -76.4566 H         1 UNK         0.0793 
    126 H126      -80.6820   26.7870  -77.9053 H         1 UNK         0.0793 
    127 H127      -80.4324   27.4738  -74.0001 H         1 UNK         0.2896 
@<TRIPOS>BOND
     1    1    2 1    
     2    1   67 1    
     3    1   68 1    
     4    1   69 1    
     5    2    3 2    
     6    2    4 am   BACKBONE|DICT|INTERRES
     7    4    5 1    
     8    4   70 1    
     9    5    6 1    
    10    5   65 1    
    11    5   71 1    
    12    6    7 1    
    13    6   72 1    
    14    6   73 1    
    15    7    8 1    
    16    8    9 1    
    17    8   74 1    
    18    8   75 1    
    19    9   10 ar   
    20    9   14 ar   
    21   10   11 ar   
    22   10   76 1    
    23   11   12 ar   
    24   11   48 1    
    25   12   13 ar   
    26   12   77 1    
    27   13   14 ar   
    28   13   15 1    
    29   14   78 1    
    30   15   16 1    
    31   15   79 1    
    32   15   80 1    
    33   16   17 1    
    34   17   18 1    
    35   17   81 1    
    36   17   82 1    
    37   18   19 1    
    38   18   22 1    
    39   18   83 1    
    40   19   20 am   BACKBONE|DICT|INTERRES
    41   19   21 2    
    42   20   84 1    
    43   20   85 1    
    44   22   23 am   BACKBONE|DICT|INTERRES
    45   22   86 1    
    46   23   24 2    
    47   23   25 1    
    48   25   26 1    
    49   25   27 1    
    50   25   87 1    
    51   26   88 1    
    52   26   89 1    
    53   26   90 1    
    54   27   28 am   BACKBONE|DICT|INTERRES
    55   27   91 1    
    56   28   29 2    
    57   28   30 1    
    58   30   31 1    
    59   30   32 1    
    60   30   92 1    
    61   31   93 1    
    62   31   94 1    
    63   31   95 1    
    64   32   33 am   BACKBONE|DICT|INTERRES
    65   32   96 1    
    66   33   34 2    
    67   33   35 1    
    68   35   36 1    
    69   35   37 1    
    70   35   97 1    
    71   36   98 1    
    72   36   99 1    
    73   36  100 1    
    74   37   38 am   BACKBONE|DICT|INTERRES
    75   37  101 1    
    76   38   39 2    
    77   38   40 1    
    78   40   41 1    
    79   40   42 1    
    80   40  102 1    
    81   41  103 1    
    82   41  104 1    
    83   41  105 1    
    84   42   43 am   BACKBONE|DICT|INTERRES
    85   42  106 1    
    86   43   44 2    
    87   43   45 1    
    88   45   46 1    
    89   45   49 1    
    90   45  107 1    
    91   46   47 1    
    92   46  108 1    
    93   46  109 1    
    94   47   48 1    
    95   48  110 1    
    96   48  111 1    
    97   49   50 am   BACKBONE|DICT|INTERRES
    98   49  112 1    
    99   50   51 2    
   100   50   52 1    
   101   52   53 1    
   102   52   54 1    
   103   52  113 1    
   104   53  114 1    
   105   53  115 1    
   106   53  116 1    
   107   54   55 am   BACKBONE|DICT|INTERRES
   108   54  117 1    
   109   55   56 2    
   110   55   57 1    
   111   57   58 1    
   112   57   59 1    
   113   57  118 1    
   114   58  119 1    
   115   58  120 1    
   116   58  121 1    
   117   59   60 am   BACKBONE|DICT|INTERRES
   118   59  122 1    
   119   60   61 2    
   120   60   62 1    
   121   62   63 1    
   122   62   64 1    
   123   62  123 1    
   124   63  124 1    
   125   63  125 1    
   126   63  126 1    
   127   64   65 am   BACKBONE|DICT|INTERRES
   128   64  127 1    
   129   65   66 2    
@<TRIPOS>SUBSTRUCTURE
     1 UNK         1 GROUP             0       ****    0 ROOT    
