@<TRIPOS>MOLECULE
3R135
127   129    1
SMALL
USER_CHARGES


@<TRIPOS>ATOM
      1 CA        -82.6025   28.3649  -72.3012 C.3       0 UNK        -0.1998 
      2 C         -81.5185   27.9362  -73.2778 C.2       0 UNK         0.4909 
      3 O         -80.9899   26.8323  -73.1511 O.2       0 UNK        -0.5240 
      4 N         -81.1860   28.8064  -74.2442 N.am      1 UNK        -0.4739 
      5 CA        -80.1630   28.6073  -75.2855 C.3       1 UNK         0.0864 
      6 C6        -78.7126   28.5639  -74.7218 C.3       11 UNK        -0.0881 
      7 S7        -78.1760   30.1888  -74.0815 S.3       11 UNK        -0.2682 
      8 C8        -78.5194   30.0799  -72.2956 C.3       11 UNK         0.0289 
      9 C9        -77.6061   29.0956  -71.5808 C.ar      11 UNK        -0.0687 
     10 C10       -78.0826   27.8378  -71.2064 C.ar      11 UNK        -0.0823 
     11 C11       -77.2471   26.9280  -70.5539 C.ar      11 UNK        -0.0830 
     12 C12       -75.9372   27.2999  -70.2360 C.ar      11 UNK        -0.1021 
     13 C13       -75.4440   28.5559  -70.6041 C.ar      11 UNK        -0.0753 
     14 C14       -76.2856   29.4448  -71.2868 C.ar      11 UNK        -0.0933 
     15 C15       -73.9862   28.9012  -70.3102 C.3       11 UNK         0.0166 
     16 S16       -73.7250   30.6584  -69.8909 S.3       11 UNK        -0.2615 
     17 C17       -72.2666   31.0768  -70.9045 C.3       11 UNK        -0.0865 
     18 CA        -72.6471   31.6493  -72.2977 C.3       10 UNK         0.0862 
     19 C         -71.4271   32.3637  -72.9544 C.2       10 UNK         0.5551 
     20 N         -70.9021   31.9085  -74.0858 N.am      10 UNK        -0.7319 
     21 O         -70.9490   33.3628  -72.4227 O.2       10 UNK        -0.5018 
     22 N         -73.2896   30.6307  -73.1461 N.am      10 UNK        -0.4509 
     23 C         -74.0285   30.8867  -74.2335 C.2       10 UNK         0.4899 
     24 O         -74.3493   32.0235  -74.5838 O.2       10 UNK        -0.4839 
     25 CA        -74.4711   29.6671  -75.0746 C.3       9 UNK         0.0222 
     26 CB        -74.8031   30.0436  -76.5325 C.3       9 UNK        -0.1966 
     27 N         -73.5399   28.5291  -75.0519 N.am      9 UNK        -0.4218 
     28 C         -72.2248   28.5326  -75.3242 C.2       9 UNK         0.5020 
     29 O         -71.5816   29.5404  -75.6177 O.2       9 UNK        -0.5274 
     30 CA        -71.5018   27.1833  -75.2303 C.3       8 UNK         0.0270 
     31 CB        -71.4856   26.6688  -73.7791 C.3       8 UNK        -0.1976 
     32 N         -72.1482   26.1965  -76.0947 N.am      8 UNK        -0.4313 
     33 C         -71.6381   25.7190  -77.2383 C.2       8 UNK         0.5041 
     34 O         -70.5268   26.0243  -77.6737 O.2       8 UNK        -0.5577 
     35 CA        -72.4991   24.7213  -78.0399 C.3       7 UNK         0.0284 
     36 CB        -72.0480   23.2785  -77.7597 C.3       7 UNK        -0.1958 
     37 N         -73.9340   24.8303  -77.7688 N.am      7 UNK        -0.4454 
     38 C         -74.7013   25.8771  -78.1044 C.2       7 UNK         0.5089 
     39 O         -74.3020   26.8318  -78.7709 O.2       7 UNK        -0.5125 
     40 CA        -76.1541   25.8725  -77.5906 C.3       6 UNK         0.0408 
     41 CB        -77.0870   25.3730  -78.7055 C.3       6 UNK        -0.1791 
     42 N         -76.3809   25.0814  -76.3704 N.am      6 UNK        -0.4762 
     43 C         -75.7208   25.2246  -75.2073 C.2       6 UNK         0.5007 
     44 O         -74.8206   26.0489  -75.0422 O.2       6 UNK        -0.5032 
     45 CA        -76.0807   24.3041  -74.0209 C.3       5 UNK         0.0783 
     46 C46       -76.8492   25.1181  -72.9577 C.3       11 UNK        -0.0857 
     47 S47       -76.9128   24.2731  -71.3401 S.3       11 UNK        -0.2512 
     48 C48       -77.7378   25.5130  -70.2785 C.3       11 UNK         0.0225 
     49 N         -76.8167   23.0981  -74.3991 N.am      5 UNK        -0.4615 
     50 C         -76.3967   22.1265  -75.2198 C.2       4 UNK         0.5053 
     51 O         -75.2616   22.0738  -75.6941 O.2       4 UNK        -0.5105 
     52 CA        -77.4456   21.0664  -75.6204 C.3       4 UNK         0.0263 
     53 CB        -77.2427   19.7784  -74.8067 C.3       4 UNK        -0.1981 
     54 N         -78.8400   21.5188  -75.4746 N.am      4 UNK        -0.4224 
     55 C         -79.3651   22.5895  -76.0898 C.2       3 UNK         0.4895 
     56 O         -78.7392   23.2714  -76.9056 O.2       3 UNK        -0.5091 
     57 CA        -80.7848   23.0070  -75.6777 C.3       3 UNK         0.0250 
     58 CB        -80.9048   23.2063  -74.1513 C.3       3 UNK        -0.1996 
     59 N         -81.1020   24.2592  -76.3561 N.am      3 UNK        -0.4254 
     60 C         -82.3131   24.7683  -76.5878 C.2       2 UNK         0.5004 
     61 O         -83.3636   24.2238  -76.2416 O.2       2 UNK        -0.5226 
     62 CA        -82.3409   26.1286  -77.3132 C.3       2 UNK         0.0269 
     63 CB        -83.7577   26.5259  -77.7691 C.3       2 UNK        -0.1926 
     64 N         -81.7979   27.2018  -76.4748 N.am      2 UNK        -0.4687 
     65 C         -80.4984   27.4180  -76.2177 C.2       1 UNK         0.5165 
     66 O         -79.5972   26.7298  -76.6972 O.2       1 UNK        -0.5079 
     67 H67       -83.4389   27.6676  -72.3408 H         1 UNK         0.0900 
     68 H68       -82.9809   29.3627  -72.5221 H         1 UNK         0.0900 
     69 H69       -82.2095   28.3685  -71.2849 H         1 UNK         0.0900 
     70 H70       -81.6630   29.6968  -74.2837 H         1 UNK         0.2959 
     71 H71       -80.2266   29.4799  -75.9379 H         1 UNK         0.1079 
     72 H72       -78.6049   27.7918  -73.9606 H         1 UNK         0.0837 
     73 H73       -77.9992   28.3028  -75.5058 H         1 UNK         0.0837 
     74 H74       -79.5666   29.8240  -72.1362 H         1 UNK         0.0685 
     75 H75       -78.3851   31.0702  -71.8581 H         1 UNK         0.0685 
     76 H76       -79.0951   27.5529  -71.4553 H         1 UNK         0.1434 
     77 H77       -75.2882   26.5884  -69.7434 H         1 UNK         0.1329 
     78 H78       -75.9166   30.4121  -71.5985 H         1 UNK         0.1335 
     79 H79       -73.3913   28.6207  -71.1791 H         1 UNK         0.0680 
     80 H80       -73.6144   28.2999  -69.4791 H         1 UNK         0.0680 
     81 H81       -71.6987   31.8134  -70.3323 H         1 UNK         0.1032 
     82 H82       -71.6088   30.2111  -71.0007 H         1 UNK         0.1032 
     83 H83       -73.3845   32.4376  -72.1333 H         1 UNK         0.0461 
     84 H84       -71.2761   31.0867  -74.5524 H         1 UNK         0.3453 
     85 H85       -70.1167   32.3929  -74.4895 H         1 UNK         0.3453 
     86 H86       -73.0629   29.6704  -72.9427 H         1 UNK         0.2984 
     87 H87       -75.3878   29.3019  -74.6111 H         1 UNK         0.0554 
     88 H88       -75.1446   29.1765  -77.0979 H         1 UNK         0.0847 
     89 H89       -73.9354   30.4583  -77.0467 H         1 UNK         0.0847 
     90 H90       -75.5986   30.7887  -76.5748 H         1 UNK         0.0847 
     91 H91       -73.9777   27.6300  -74.8560 H         1 UNK         0.3141 
     92 H92       -70.4662   27.3416  -75.5390 H         1 UNK         0.0743 
     93 H93       -71.0322   27.4011  -73.1096 H         1 UNK         0.0784 
     94 H94       -72.4877   26.4567  -73.4040 H         1 UNK         0.0784 
     95 H95       -70.9015   25.7520  -73.6962 H         1 UNK         0.0784 
     96 H96       -73.0956   25.9314  -75.8405 H         1 UNK         0.3213 
     97 H97       -72.3397   24.9319  -79.0997 H         1 UNK         0.0855 
     98 H98       -72.2081   23.0007  -76.7169 H         1 UNK         0.0814 
     99 H99       -70.9851   23.1532  -77.9716 H         1 UNK         0.0814 
    100 H100      -72.5872   22.5652  -78.3834 H         1 UNK         0.0814 
    101 H101      -74.3574   24.0860  -77.2303 H         1 UNK         0.3105 
    102 H102      -76.4208   26.9050  -77.3573 H         1 UNK         0.0547 
    103 H103      -76.9004   24.3259  -78.9469 H         1 UNK         0.0837 
    104 H104      -78.1346   25.4662  -78.4239 H         1 UNK         0.0837 
    105 H105      -76.9504   25.9503  -79.6209 H         1 UNK         0.0837 
    106 H106      -77.1247   24.3917  -76.4264 H         1 UNK         0.3020 
    107 H107      -75.1290   23.9821  -73.5921 H         1 UNK         0.1245 
    108 H108      -77.8652   25.3435  -73.2890 H         1 UNK         0.0781 
    109 H109      -76.3537   26.0794  -72.8131 H         1 UNK         0.0781 
    110 H110      -78.8157   25.4430  -70.4343 H         1 UNK         0.0836 
    111 H111      -77.5629   25.2621  -69.2314 H         1 UNK         0.0836 
    112 H112      -77.7572   23.0334  -74.0411 H         1 UNK         0.3022 
    113 H113      -77.2830   20.8370  -76.6755 H         1 UNK         0.0747 
    114 H114      -76.2240   19.4035  -74.9173 H         1 UNK         0.0793 
    115 H115      -77.9140   18.9869  -75.1404 H         1 UNK         0.0793 
    116 H116      -77.4157   19.9415  -73.7421 H         1 UNK         0.0793 
    117 H117      -79.4148   21.0011  -74.8250 H         1 UNK         0.3047 
    118 H118      -81.4776   22.2312  -76.0096 H         1 UNK         0.0822 
    119 H119      -80.7152   22.2826  -73.6044 H         1 UNK         0.0807 
    120 H120      -81.9059   23.5359  -73.8724 H         1 UNK         0.0807 
    121 H121      -80.2023   23.9581  -73.7880 H         1 UNK         0.0807 
    122 H122      -80.2881   24.7790  -76.6760 H         1 UNK         0.2946 
    123 H123      -81.7189   26.0320  -78.2065 H         1 UNK         0.1144 
    124 H124      -84.4325   26.6627  -76.9231 H         1 UNK         0.0793 
    125 H125      -84.1907   25.7576  -78.4112 H         1 UNK         0.0793 
    126 H126      -83.7446   27.4537  -78.3414 H         1 UNK         0.0793 
    127 H127      -82.4721   27.7910  -76.0081 H         1 UNK         0.2896 
@<TRIPOS>BOND
     1    1    2 1    
     2    1   67 1    
     3    1   68 1    
     4    1   69 1    
     5    2    3 2    
     6    2    4 am   BACKBONE|DICT|INTERRES
     7    4    5 1    
     8    4   70 1    
     9    5    6 1    
    10    5   65 1    
    11    5   71 1    
    12    6    7 1    
    13    6   72 1    
    14    6   73 1    
    15    7    8 1    
    16    8    9 1    
    17    8   74 1    
    18    8   75 1    
    19    9   10 ar   
    20    9   14 ar   
    21   10   11 ar   
    22   10   76 1    
    23   11   12 ar   
    24   11   48 1    
    25   12   13 ar   
    26   12   77 1    
    27   13   14 ar   
    28   13   15 1    
    29   14   78 1    
    30   15   16 1    
    31   15   79 1    
    32   15   80 1    
    33   16   17 1    
    34   17   18 1    
    35   17   81 1    
    36   17   82 1    
    37   18   19 1    
    38   18   22 1    
    39   18   83 1    
    40   19   20 am   BACKBONE|DICT|INTERRES
    41   19   21 2    
    42   20   84 1    
    43   20   85 1    
    44   22   23 am   BACKBONE|DICT|INTERRES
    45   22   86 1    
    46   23   24 2    
    47   23   25 1    
    48   25   26 1    
    49   25   27 1    
    50   25   87 1    
    51   26   88 1    
    52   26   89 1    
    53   26   90 1    
    54   27   28 am   BACKBONE|DICT|INTERRES
    55   27   91 1    
    56   28   29 2    
    57   28   30 1    
    58   30   31 1    
    59   30   32 1    
    60   30   92 1    
    61   31   93 1    
    62   31   94 1    
    63   31   95 1    
    64   32   33 am   BACKBONE|DICT|INTERRES
    65   32   96 1    
    66   33   34 2    
    67   33   35 1    
    68   35   36 1    
    69   35   37 1    
    70   35   97 1    
    71   36   98 1    
    72   36   99 1    
    73   36  100 1    
    74   37   38 am   BACKBONE|DICT|INTERRES
    75   37  101 1    
    76   38   39 2    
    77   38   40 1    
    78   40   41 1    
    79   40   42 1    
    80   40  102 1    
    81   41  103 1    
    82   41  104 1    
    83   41  105 1    
    84   42   43 am   BACKBONE|DICT|INTERRES
    85   42  106 1    
    86   43   44 2    
    87   43   45 1    
    88   45   46 1    
    89   45   49 1    
    90   45  107 1    
    91   46   47 1    
    92   46  108 1    
    93   46  109 1    
    94   47   48 1    
    95   48  110 1    
    96   48  111 1    
    97   49   50 am   BACKBONE|DICT|INTERRES
    98   49  112 1    
    99   50   51 2    
   100   50   52 1    
   101   52   53 1    
   102   52   54 1    
   103   52  113 1    
   104   53  114 1    
   105   53  115 1    
   106   53  116 1    
   107   54   55 am   BACKBONE|DICT|INTERRES
   108   54  117 1    
   109   55   56 2    
   110   55   57 1    
   111   57   58 1    
   112   57   59 1    
   113   57  118 1    
   114   58  119 1    
   115   58  120 1    
   116   58  121 1    
   117   59   60 am   BACKBONE|DICT|INTERRES
   118   59  122 1    
   119   60   61 2    
   120   60   62 1    
   121   62   63 1    
   122   62   64 1    
   123   62  123 1    
   124   63  124 1    
   125   63  125 1    
   126   63  126 1    
   127   64   65 am   BACKBONE|DICT|INTERRES
   128   64  127 1    
   129   65   66 2    
@<TRIPOS>SUBSTRUCTURE
     1 UNK         1 GROUP             0       ****    0 ROOT    
