@<TRIPOS>MOLECULE
3R135
127   129    1
SMALL
USER_CHARGES


@<TRIPOS>ATOM
      1 CA        -83.2194   24.9428  -71.7422 C.3       0 UNK        -0.1998 
      2 C         -82.8270   25.6524  -73.0289 C.2       0 UNK         0.4909 
      3 O         -83.5156   25.5100  -74.0404 O.2       0 UNK        -0.5240 
      4 N         -81.7228   26.4119  -73.0013 N.am      1 UNK        -0.4739 
      5 CA        -81.1457   27.1117  -74.1566 C.3       1 UNK         0.0864 
      6 C6        -79.8849   27.9228  -73.7752 C.3       11 UNK        -0.0881 
      7 S7        -80.1811   29.1828  -72.4897 S.3       11 UNK        -0.2682 
      8 C8        -78.8981   28.7738  -71.2544 C.3       11 UNK         0.0289 
      9 C9        -77.4958   28.6810  -71.8507 C.ar      11 UNK        -0.0687 
     10 C10       -76.7161   27.5402  -71.6336 C.ar      11 UNK        -0.0823 
     11 C11       -75.4414   27.4264  -72.1993 C.ar      11 UNK        -0.0830 
     12 C12       -74.9453   28.4719  -72.9841 C.ar      11 UNK        -0.1021 
     13 C13       -75.7033   29.6309  -73.1846 C.ar      11 UNK        -0.0753 
     14 C14       -76.9761   29.7283  -72.6172 C.ar      11 UNK        -0.0933 
     15 C15       -75.1554   30.7787  -74.0208 C.3       11 UNK         0.0166 
     16 S16       -74.6372   32.2026  -73.0063 S.3       11 UNK        -0.2615 
     17 C17       -73.3279   31.5010  -71.9417 C.3       11 UNK        -0.0865 
     18 CA        -71.9093   32.0227  -72.2838 C.3       10 UNK         0.0862 
     19 C         -70.8994   31.5550  -71.1983 C.2       10 UNK         0.5551 
     20 N         -70.6424   32.3804  -70.1932 N.am      10 UNK        -0.7319 
     21 O         -70.3887   30.4370  -71.2377 O.2       10 UNK        -0.5018 
     22 N         -71.5008   31.6228  -73.6384 N.am      10 UNK        -0.4509 
     23 C         -70.3689   31.9893  -74.2511 C.2       10 UNK         0.4899 
     24 O         -69.5762   32.8126  -73.7900 O.2       10 UNK        -0.4839 
     25 CA        -70.0693   31.2981  -75.5973 C.3       9 UNK         0.0222 
     26 CB        -68.7693   31.8061  -76.2498 C.3       9 UNK        -0.1966 
     27 N         -69.9902   29.8404  -75.4499 N.am      9 UNK        -0.4218 
     28 C         -71.0456   29.0213  -75.3744 C.2       9 UNK         0.5020 
     29 O         -72.2137   29.4108  -75.4190 O.2       9 UNK        -0.5274 
     30 CA        -70.7591   27.5304  -75.1517 C.3       8 UNK         0.0270 
     31 CB        -70.7676   27.2044  -73.6488 C.3       8 UNK        -0.1976 
     32 N         -71.7732   26.7186  -75.8237 N.am      8 UNK        -0.4313 
     33 C         -71.7930   26.4711  -77.1401 C.2       8 UNK         0.5041 
     34 O         -70.8980   26.8110  -77.9156 O.2       8 UNK        -0.5577 
     35 CA        -73.0122   25.7122  -77.6851 C.3       7 UNK         0.0284 
     36 CB        -72.7848   24.1941  -77.5958 C.3       7 UNK        -0.1958 
     37 N         -74.2456   26.0553  -76.9757 N.am      7 UNK        -0.4454 
     38 C         -75.0224   27.1149  -77.2436 C.2       7 UNK         0.5089 
     39 O         -74.7656   27.9369  -78.1239 O.2       7 UNK        -0.5125 
     40 CA        -76.2999   27.2956  -76.3916 C.3       6 UNK         0.0408 
     41 CB        -77.5296   27.6235  -77.2631 C.3       6 UNK        -0.1791 
     42 N         -76.5651   26.1775  -75.4718 N.am      6 UNK        -0.4762 
     43 C         -76.9110   24.9144  -75.7704 C.2       6 UNK         0.5007 
     44 O         -77.2184   24.5381  -76.9016 O.2       6 UNK        -0.5032 
     45 CA        -76.8462   23.8750  -74.6324 C.3       5 UNK         0.0783 
     46 C46       -76.3076   24.3888  -73.2665 C.3       11 UNK        -0.0857 
     47 S47       -74.5860   25.0086  -73.3126 S.3       11 UNK        -0.2512 
     48 C48       -74.5864   26.1934  -71.9273 C.3       11 UNK         0.0225 
     49 N         -78.1749   23.2914  -74.4938 N.am      5 UNK        -0.4615 
     50 C         -78.4444   22.0632  -74.0444 C.2       4 UNK         0.5053 
     51 O         -77.5745   21.2391  -73.7611 O.2       4 UNK        -0.5105 
     52 CA        -79.9214   21.6866  -73.8480 C.3       4 UNK         0.0263 
     53 CB        -80.3937   22.1148  -72.4476 C.3       4 UNK        -0.1981 
     54 N         -80.8099   22.2863  -74.8498 N.am      4 UNK        -0.4224 
     55 C         -81.7027   21.6029  -75.5825 C.2       3 UNK         0.4895 
     56 O         -81.8180   20.3769  -75.5462 O.2       3 UNK        -0.5091 
     57 CA        -82.6617   22.3981  -76.4920 C.3       3 UNK         0.0250 
     58 CB        -84.0666   22.4483  -75.8686 C.3       3 UNK        -0.1996 
     59 N         -82.2158   23.7650  -76.7647 N.am      3 UNK        -0.4254 
     60 C         -81.2505   24.0869  -77.6373 C.2       2 UNK         0.5004 
     61 O         -80.7055   23.2677  -78.3776 O.2       2 UNK        -0.5226 
     62 CA        -80.7956   25.5608  -77.6895 C.3       2 UNK         0.0269 
     63 CB        -81.3349   26.2489  -78.9540 C.3       2 UNK        -0.1926 
     64 N         -81.1414   26.3782  -76.5158 N.am      2 UNK        -0.4687 
     65 C         -80.7677   26.1067  -75.2587 C.2       1 UNK         0.5165 
     66 O         -80.1401   25.0958  -74.9436 O.2       1 UNK        -0.5079 
     67 H67       -83.2445   23.8652  -71.9032 H         1 UNK         0.0900 
     68 H68       -82.5191   25.1489  -70.9328 H         1 UNK         0.0900 
     69 H69       -84.2112   25.2638  -71.4245 H         1 UNK         0.0900 
     70 H70       -81.2003   26.4975  -72.1420 H         1 UNK         0.2959 
     71 H71       -81.9045   27.7946  -74.5443 H         1 UNK         0.1079 
     72 H72       -79.4888   28.4471  -74.6465 H         1 UNK         0.0837 
     73 H73       -79.0933   27.2450  -73.4503 H         1 UNK         0.0837 
     74 H74       -78.9013   29.5380  -70.4763 H         1 UNK         0.0685 
     75 H75       -79.1739   27.8370  -70.7680 H         1 UNK         0.0685 
     76 H76       -77.1033   26.7365  -71.0222 H         1 UNK         0.1434 
     77 H77       -73.9613   28.3928  -73.4257 H         1 UNK         0.1329 
     78 H78       -77.5665   30.6200  -72.7782 H         1 UNK         0.1335 
     79 H79       -75.9249   31.1101  -74.7195 H         1 UNK         0.0680 
     80 H80       -74.3205   30.4493  -74.6343 H         1 UNK         0.0680 
     81 H81       -73.5877   31.7630  -70.9141 H         1 UNK         0.1032 
     82 H82       -73.3447   30.4121  -71.9772 H         1 UNK         0.1032 
     83 H83       -71.9363   33.1143  -72.2711 H         1 UNK         0.0461 
     84 H84       -71.0641   33.2952  -70.1482 H         1 UNK         0.3453 
     85 H85       -70.0029   32.0883  -69.4706 H         1 UNK         0.3453 
     86 H86       -72.0698   30.9184  -74.0951 H         1 UNK         0.2984 
     87 H87       -70.8918   31.5408  -76.2738 H         1 UNK         0.0554 
     88 H88       -68.8083   32.8844  -76.4102 H         1 UNK         0.0847 
     89 H89       -68.6062   31.3431  -77.2232 H         1 UNK         0.0847 
     90 H90       -67.8962   31.6004  -75.6292 H         1 UNK         0.0847 
     91 H91       -69.0640   29.4482  -75.3539 H         1 UNK         0.3141 
     92 H92       -69.7764   27.2860  -75.5609 H         1 UNK         0.0743 
     93 H93       -71.7247   27.4469  -73.1865 H         1 UNK         0.0784 
     94 H94       -70.5670   26.1478  -73.4699 H         1 UNK         0.0784 
     95 H95       -70.0015   27.7739  -73.1206 H         1 UNK         0.0784 
     96 H96       -72.5719   26.4449  -75.2721 H         1 UNK         0.3213 
     97 H97       -73.1252   25.9769  -78.7390 H         1 UNK         0.0855 
     98 H98       -72.6691   23.8596  -76.5640 H         1 UNK         0.0814 
     99 H99       -71.8822   23.9037  -78.1354 H         1 UNK         0.0814 
    100 H100      -73.6155   23.6426  -78.0368 H         1 UNK         0.0814 
    101 H101      -74.5410   25.4325  -76.2395 H         1 UNK         0.3105 
    102 H102      -76.1142   28.1610  -75.7545 H         1 UNK         0.0547 
    103 H103      -78.4360   27.7011  -76.6659 H         1 UNK         0.0837 
    104 H104      -77.6940   26.8690  -78.0323 H         1 UNK         0.0837 
    105 H105      -77.3980   28.5771  -77.7754 H         1 UNK         0.0837 
    106 H106      -76.3121   26.3618  -74.5085 H         1 UNK         0.3020 
    107 H107      -76.1688   23.0947  -74.9874 H         1 UNK         0.1245 
    108 H108      -76.3299   23.5774  -72.5373 H         1 UNK         0.0781 
    109 H109      -76.9797   25.1495  -72.8715 H         1 UNK         0.0781 
    110 H110      -73.5592   26.5038  -71.7316 H         1 UNK         0.0836 
    111 H111      -74.9211   25.6850  -71.0215 H         1 UNK         0.0836 
    112 H112      -78.9403   23.9277  -74.7191 H         1 UNK         0.3022 
    113 H113      -79.9714   20.5970  -73.9011 H         1 UNK         0.0747 
    114 H114      -81.4101   21.7727  -72.2521 H         1 UNK         0.0793 
    115 H115      -79.7546   21.6917  -71.6713 H         1 UNK         0.0793 
    116 H116      -80.3773   23.1994  -72.3313 H         1 UNK         0.0793 
    117 H117      -80.7531   23.2944  -74.9611 H         1 UNK         0.3047 
    118 H118      -82.7316   21.8601  -77.4400 H         1 UNK         0.0822 
    119 H119      -84.7727   22.9641  -76.5196 H         1 UNK         0.0807 
    120 H120      -84.0627   22.9591  -74.9050 H         1 UNK         0.0807 
    121 H121      -84.4564   21.4431  -75.7019 H         1 UNK         0.0807 
    122 H122      -82.6115   24.4971  -76.1890 H         1 UNK         0.2946 
    123 H123      -79.7059   25.5342  -77.7540 H         1 UNK         0.1144 
    124 H124      -80.9179   27.2494  -79.0707 H         1 UNK         0.0793 
    125 H125      -82.4219   26.3358  -78.9325 H         1 UNK         0.0793 
    126 H126      -81.0705   25.6853  -79.8500 H         1 UNK         0.0793 
    127 H127      -81.6762   27.2160  -76.6967 H         1 UNK         0.2896 
@<TRIPOS>BOND
     1    1    2 1    
     2    1   67 1    
     3    1   68 1    
     4    1   69 1    
     5    2    3 2    
     6    2    4 am   BACKBONE|DICT|INTERRES
     7    4    5 1    
     8    4   70 1    
     9    5    6 1    
    10    5   65 1    
    11    5   71 1    
    12    6    7 1    
    13    6   72 1    
    14    6   73 1    
    15    7    8 1    
    16    8    9 1    
    17    8   74 1    
    18    8   75 1    
    19    9   10 ar   
    20    9   14 ar   
    21   10   11 ar   
    22   10   76 1    
    23   11   12 ar   
    24   11   48 1    
    25   12   13 ar   
    26   12   77 1    
    27   13   14 ar   
    28   13   15 1    
    29   14   78 1    
    30   15   16 1    
    31   15   79 1    
    32   15   80 1    
    33   16   17 1    
    34   17   18 1    
    35   17   81 1    
    36   17   82 1    
    37   18   19 1    
    38   18   22 1    
    39   18   83 1    
    40   19   20 am   BACKBONE|DICT|INTERRES
    41   19   21 2    
    42   20   84 1    
    43   20   85 1    
    44   22   23 am   BACKBONE|DICT|INTERRES
    45   22   86 1    
    46   23   24 2    
    47   23   25 1    
    48   25   26 1    
    49   25   27 1    
    50   25   87 1    
    51   26   88 1    
    52   26   89 1    
    53   26   90 1    
    54   27   28 am   BACKBONE|DICT|INTERRES
    55   27   91 1    
    56   28   29 2    
    57   28   30 1    
    58   30   31 1    
    59   30   32 1    
    60   30   92 1    
    61   31   93 1    
    62   31   94 1    
    63   31   95 1    
    64   32   33 am   BACKBONE|DICT|INTERRES
    65   32   96 1    
    66   33   34 2    
    67   33   35 1    
    68   35   36 1    
    69   35   37 1    
    70   35   97 1    
    71   36   98 1    
    72   36   99 1    
    73   36  100 1    
    74   37   38 am   BACKBONE|DICT|INTERRES
    75   37  101 1    
    76   38   39 2    
    77   38   40 1    
    78   40   41 1    
    79   40   42 1    
    80   40  102 1    
    81   41  103 1    
    82   41  104 1    
    83   41  105 1    
    84   42   43 am   BACKBONE|DICT|INTERRES
    85   42  106 1    
    86   43   44 2    
    87   43   45 1    
    88   45   46 1    
    89   45   49 1    
    90   45  107 1    
    91   46   47 1    
    92   46  108 1    
    93   46  109 1    
    94   47   48 1    
    95   48  110 1    
    96   48  111 1    
    97   49   50 am   BACKBONE|DICT|INTERRES
    98   49  112 1    
    99   50   51 2    
   100   50   52 1    
   101   52   53 1    
   102   52   54 1    
   103   52  113 1    
   104   53  114 1    
   105   53  115 1    
   106   53  116 1    
   107   54   55 am   BACKBONE|DICT|INTERRES
   108   54  117 1    
   109   55   56 2    
   110   55   57 1    
   111   57   58 1    
   112   57   59 1    
   113   57  118 1    
   114   58  119 1    
   115   58  120 1    
   116   58  121 1    
   117   59   60 am   BACKBONE|DICT|INTERRES
   118   59  122 1    
   119   60   61 2    
   120   60   62 1    
   121   62   63 1    
   122   62   64 1    
   123   62  123 1    
   124   63  124 1    
   125   63  125 1    
   126   63  126 1    
   127   64   65 am   BACKBONE|DICT|INTERRES
   128   64  127 1    
   129   65   66 2    
@<TRIPOS>SUBSTRUCTURE
     1 UNK         1 GROUP             0       ****    0 ROOT    
