@<TRIPOS>MOLECULE
3R135
127   129    1
SMALL
USER_CHARGES


@<TRIPOS>ATOM
      1 CA        -80.5827   24.7055  -70.7137 C.3       0 UNK        -0.1998 
      2 C         -81.4095   25.1636  -71.9051 C.2       0 UNK         0.4909 
      3 O         -82.4199   24.5341  -72.2190 O.2       0 UNK        -0.5240 
      4 N         -81.0010   26.2571  -72.5607 N.am      1 UNK        -0.4739 
      5 CA        -81.6704   26.8096  -73.7404 C.3       1 UNK         0.0864 
      6 C6        -81.6345   28.3635  -73.7370 C.3       11 UNK        -0.0881 
      7 S7        -79.9802   29.1048  -73.9765 S.3       11 UNK        -0.2682 
      8 C8        -79.5172   29.6591  -72.3076 C.3       11 UNK         0.0289 
      9 C9        -78.0821   29.2593  -72.0051 C.ar      11 UNK        -0.0687 
     10 C10       -77.8179   28.1928  -71.1435 C.ar      11 UNK        -0.0823 
     11 C11       -76.5037   27.7824  -70.9029 C.ar      11 UNK        -0.0830 
     12 C12       -75.4472   28.4614  -71.5173 C.ar      11 UNK        -0.1021 
     13 C13       -75.6968   29.5496  -72.3603 C.ar      11 UNK        -0.0753 
     14 C14       -77.0173   29.9424  -72.6011 C.ar      11 UNK        -0.0933 
     15 C15       -74.5438   30.2993  -73.0120 C.3       11 UNK         0.0166 
     16 S16       -73.5449   31.1735  -71.7656 S.3       11 UNK        -0.2615 
     17 C17       -72.7624   32.4993  -72.7515 C.3       11 UNK        -0.0865 
     18 CA        -71.3953   32.1302  -73.3969 C.3       10 UNK         0.0862 
     19 C         -70.3001   31.7446  -72.3669 C.2       10 UNK         0.5551 
     20 N         -69.8800   32.6840  -71.5302 N.am      10 UNK        -0.7319 
     21 O         -69.8286   30.6101  -72.3134 O.2       10 UNK        -0.5018 
     22 N         -71.5227   31.1247  -74.4570 N.am      10 UNK        -0.4509 
     23 C         -72.0413   31.3393  -75.6692 C.2       10 UNK         0.4899 
     24 O         -72.4977   32.4264  -76.0251 O.2       10 UNK        -0.4839 
     25 CA        -72.0855   30.1671  -76.6671 C.3       9 UNK         0.0222 
     26 CB        -70.9042   30.2368  -77.6546 C.3       9 UNK        -0.1966 
     27 N         -72.2145   28.8263  -76.0779 N.am      9 UNK        -0.4218 
     28 C         -71.3233   28.1296  -75.3535 C.2       9 UNK         0.5020 
     29 O         -70.2303   28.5758  -75.0055 O.2       9 UNK        -0.5274 
     30 CA        -71.7078   26.6996  -74.9235 C.3       8 UNK         0.0270 
     31 CB        -72.0831   26.6770  -73.4323 C.3       8 UNK        -0.1976 
     32 N         -72.8051   26.1264  -75.7092 N.am      8 UNK        -0.4313 
     33 C         -72.7168   25.7815  -77.0045 C.2       8 UNK         0.5041 
     34 O         -71.6590   25.7884  -77.6352 O.2       8 UNK        -0.5577 
     35 CA        -74.0159   25.3947  -77.7432 C.3       7 UNK         0.0284 
     36 CB        -74.0987   23.8699  -77.9234 C.3       7 UNK        -0.1958 
     37 N         -75.2472   25.8602  -77.0994 N.am      7 UNK        -0.4454 
     38 C         -75.5666   27.1317  -76.8168 C.2       7 UNK         0.5089 
     39 O         -74.8802   28.1003  -77.1426 O.2       7 UNK        -0.5125 
     40 CA        -76.8361   27.3512  -75.9705 C.3       6 UNK         0.0408 
     41 CB        -78.0129   27.6617  -76.9058 C.3       6 UNK        -0.1791 
     42 N         -77.1909   26.2293  -75.0817 N.am      6 UNK        -0.4762 
     43 C         -76.3633   25.6614  -74.1845 C.2       6 UNK         0.5007 
     44 O         -75.1932   26.0167  -74.0425 O.2       6 UNK        -0.5032 
     45 CA        -76.8604   24.4450  -73.3793 C.3       5 UNK         0.0783 
     46 C46       -77.2188   24.7756  -71.9104 C.3       11 UNK        -0.0857 
     47 S47       -75.7525   25.0998  -70.8705 S.3       11 UNK        -0.2512 
     48 C48       -76.2296   26.6104  -69.9713 C.3       11 UNK         0.0225 
     49 N         -77.9443   23.7292  -74.0599 N.am      5 UNK        -0.4615 
     50 C         -78.1020   22.4010  -73.9936 C.2       4 UNK         0.5053 
     51 O         -77.3699   21.6559  -73.3413 O.2       4 UNK        -0.5105 
     52 CA        -79.2660   21.7860  -74.7853 C.3       4 UNK         0.0263 
     53 CB        -80.5676   21.8558  -73.9723 C.3       4 UNK        -0.1981 
     54 N         -79.4844   22.4027  -76.0929 N.am      4 UNK        -0.4224 
     55 C         -78.6309   22.4031  -77.1239 C.2       3 UNK         0.4895 
     56 O         -77.5119   21.8915  -77.0858 O.2       3 UNK        -0.5091 
     57 CA        -79.0931   23.0884  -78.4260 C.3       3 UNK         0.0250 
     58 CB        -79.8756   22.1041  -79.3171 C.3       3 UNK        -0.1996 
     59 N         -79.8317   24.3485  -78.2400 N.am      3 UNK        -0.4254 
     60 C         -81.0195   24.5516  -77.6507 C.2       2 UNK         0.5004 
     61 O         -81.7345   23.6569  -77.1937 O.2       2 UNK        -0.5226 
     62 CA        -81.4679   26.0145  -77.5131 C.3       2 UNK         0.0269 
     63 CB        -82.6550   26.3019  -78.4466 C.3       2 UNK        -0.1926 
     64 N         -81.8362   26.3761  -76.1396 N.am      2 UNK        -0.4687 
     65 C         -81.0904   26.2018  -75.0368 C.2       1 UNK         0.5165 
     66 O         -79.9840   25.6451  -75.0243 O.2       1 UNK        -0.5079 
     67 H67       -81.2294   24.5432  -69.8518 H         1 UNK         0.0900 
     68 H68       -80.0854   23.7641  -70.9443 H         1 UNK         0.0900 
     69 H69       -79.8293   25.4385  -70.4295 H         1 UNK         0.0900 
     70 H70       -80.1368   26.7126  -72.3102 H         1 UNK         0.2959 
     71 H71       -82.7234   26.5199  -73.7072 H         1 UNK         0.1079 
     72 H72       -82.0771   28.7418  -72.8144 H         1 UNK         0.0837 
     73 H73       -82.2768   28.7473  -74.5315 H         1 UNK         0.0837 
     74 H74       -79.6233   30.7430  -72.2455 H         1 UNK         0.0685 
     75 H75       -80.1937   29.2391  -71.5620 H         1 UNK         0.0685 
     76 H76       -78.6371   27.6735  -70.6668 H         1 UNK         0.1434 
     77 H77       -74.4288   28.1471  -71.3343 H         1 UNK         0.1329 
     78 H78       -77.2225   30.7719  -73.2639 H         1 UNK         0.1335 
     79 H79       -73.9116   29.5971  -73.5565 H         1 UNK         0.0680 
     80 H80       -74.9216   31.0104  -73.7480 H         1 UNK         0.0680 
     81 H81       -73.4611   32.8426  -73.5152 H         1 UNK         0.1032 
     82 H82       -72.6325   33.3589  -72.0923 H         1 UNK         0.1032 
     83 H83       -71.0139   33.0302  -73.8838 H         1 UNK         0.0461 
     84 H84       -70.2524   33.6201  -71.5632 H         1 UNK         0.3453 
     85 H85       -69.1712   32.4519  -70.8519 H         1 UNK         0.3453 
     86 H86       -71.0778   30.2317  -74.2624 H         1 UNK         0.2984 
     87 H87       -72.9984   30.3033  -77.2492 H         1 UNK         0.0554 
     88 H88       -70.8932   31.1925  -78.1804 H         1 UNK         0.0847 
     89 H89       -70.9711   29.4528  -78.4090 H         1 UNK         0.0847 
     90 H90       -69.9429   30.1363  -77.1499 H         1 UNK         0.0847 
     91 H91       -73.0982   28.3725  -76.2925 H         1 UNK         0.3141 
     92 H92       -70.8274   26.0690  -75.0639 H         1 UNK         0.0743 
     93 H93       -72.9500   27.3053  -73.2256 H         1 UNK         0.0784 
     94 H94       -72.3163   25.6669  -73.0949 H         1 UNK         0.0784 
     95 H95       -71.2614   27.0444  -72.8158 H         1 UNK         0.0784 
     96 H96       -73.7084   26.0731  -75.2421 H         1 UNK         0.3213 
     97 H97       -73.9711   25.8574  -78.7313 H         1 UNK         0.0855 
     98 H98       -74.1719   23.3537  -76.9651 H         1 UNK         0.0814 
     99 H99       -73.2126   23.4878  -78.4323 H         1 UNK         0.0814 
    100 H100      -74.9626   23.5850  -78.5245 H         1 UNK         0.0814 
    101 H101      -75.8766   25.1446  -76.7673 H         1 UNK         0.3105 
    102 H102      -76.6614   28.2209  -75.3337 H         1 UNK         0.0547 
    103 H103      -77.7953   28.5282  -77.5319 H         1 UNK         0.0837 
    104 H104      -78.2240   26.8247  -77.5700 H         1 UNK         0.0837 
    105 H105      -78.9197   27.8907  -76.3507 H         1 UNK         0.0837 
    106 H106      -78.1659   25.9424  -75.1067 H         1 UNK         0.3020 
    107 H107      -75.9983   23.7732  -73.3579 H         1 UNK         0.1245 
    108 H108      -77.7286   23.9267  -71.4540 H         1 UNK         0.0781 
    109 H109      -77.9253   25.6019  -71.8737 H         1 UNK         0.0781 
    110 H110      -75.4264   26.8782  -69.2832 H         1 UNK         0.0836 
    111 H111      -77.1006   26.3955  -69.3502 H         1 UNK         0.0836 
    112 H112      -78.6217   24.2815  -74.5757 H         1 UNK         0.3022 
    113 H113      -79.0257   20.7344  -74.9551 H         1 UNK         0.0747 
    114 H114      -81.3690   21.3004  -74.4598 H         1 UNK         0.0793 
    115 H115      -80.4358   21.4293  -72.9769 H         1 UNK         0.0793 
    116 H116      -80.9051   22.8849  -73.8474 H         1 UNK         0.0793 
    117 H117      -80.3904   22.8390  -76.2524 H         1 UNK         0.3047 
    118 H118      -78.1843   23.3610  -78.9656 H         1 UNK         0.0822 
    119 H119      -80.1370   22.5570  -80.2735 H         1 UNK         0.0807 
    120 H120      -80.7975   21.7659  -78.8432 H         1 UNK         0.0807 
    121 H121      -79.2791   21.2163  -79.5318 H         1 UNK         0.0807 
    122 H122      -79.3399   25.1638  -78.5767 H         1 UNK         0.2946 
    123 H123      -80.6448   26.6672  -77.8067 H         1 UNK         0.1144 
    124 H124      -82.9373   27.3546  -78.4208 H         1 UNK         0.0793 
    125 H125      -83.5317   25.7113  -78.1765 H         1 UNK         0.0793 
    126 H126      -82.4067   26.0606  -79.4813 H         1 UNK         0.0793 
    127 H127      -82.7326   26.8290  -76.0379 H         1 UNK         0.2896 
@<TRIPOS>BOND
     1    1    2 1    
     2    1   67 1    
     3    1   68 1    
     4    1   69 1    
     5    2    3 2    
     6    2    4 am   BACKBONE|DICT|INTERRES
     7    4    5 1    
     8    4   70 1    
     9    5    6 1    
    10    5   65 1    
    11    5   71 1    
    12    6    7 1    
    13    6   72 1    
    14    6   73 1    
    15    7    8 1    
    16    8    9 1    
    17    8   74 1    
    18    8   75 1    
    19    9   10 ar   
    20    9   14 ar   
    21   10   11 ar   
    22   10   76 1    
    23   11   12 ar   
    24   11   48 1    
    25   12   13 ar   
    26   12   77 1    
    27   13   14 ar   
    28   13   15 1    
    29   14   78 1    
    30   15   16 1    
    31   15   79 1    
    32   15   80 1    
    33   16   17 1    
    34   17   18 1    
    35   17   81 1    
    36   17   82 1    
    37   18   19 1    
    38   18   22 1    
    39   18   83 1    
    40   19   20 am   BACKBONE|DICT|INTERRES
    41   19   21 2    
    42   20   84 1    
    43   20   85 1    
    44   22   23 am   BACKBONE|DICT|INTERRES
    45   22   86 1    
    46   23   24 2    
    47   23   25 1    
    48   25   26 1    
    49   25   27 1    
    50   25   87 1    
    51   26   88 1    
    52   26   89 1    
    53   26   90 1    
    54   27   28 am   BACKBONE|DICT|INTERRES
    55   27   91 1    
    56   28   29 2    
    57   28   30 1    
    58   30   31 1    
    59   30   32 1    
    60   30   92 1    
    61   31   93 1    
    62   31   94 1    
    63   31   95 1    
    64   32   33 am   BACKBONE|DICT|INTERRES
    65   32   96 1    
    66   33   34 2    
    67   33   35 1    
    68   35   36 1    
    69   35   37 1    
    70   35   97 1    
    71   36   98 1    
    72   36   99 1    
    73   36  100 1    
    74   37   38 am   BACKBONE|DICT|INTERRES
    75   37  101 1    
    76   38   39 2    
    77   38   40 1    
    78   40   41 1    
    79   40   42 1    
    80   40  102 1    
    81   41  103 1    
    82   41  104 1    
    83   41  105 1    
    84   42   43 am   BACKBONE|DICT|INTERRES
    85   42  106 1    
    86   43   44 2    
    87   43   45 1    
    88   45   46 1    
    89   45   49 1    
    90   45  107 1    
    91   46   47 1    
    92   46  108 1    
    93   46  109 1    
    94   47   48 1    
    95   48  110 1    
    96   48  111 1    
    97   49   50 am   BACKBONE|DICT|INTERRES
    98   49  112 1    
    99   50   51 2    
   100   50   52 1    
   101   52   53 1    
   102   52   54 1    
   103   52  113 1    
   104   53  114 1    
   105   53  115 1    
   106   53  116 1    
   107   54   55 am   BACKBONE|DICT|INTERRES
   108   54  117 1    
   109   55   56 2    
   110   55   57 1    
   111   57   58 1    
   112   57   59 1    
   113   57  118 1    
   114   58  119 1    
   115   58  120 1    
   116   58  121 1    
   117   59   60 am   BACKBONE|DICT|INTERRES
   118   59  122 1    
   119   60   61 2    
   120   60   62 1    
   121   62   63 1    
   122   62   64 1    
   123   62  123 1    
   124   63  124 1    
   125   63  125 1    
   126   63  126 1    
   127   64   65 am   BACKBONE|DICT|INTERRES
   128   64  127 1    
   129   65   66 2    
@<TRIPOS>SUBSTRUCTURE
     1 UNK         1 GROUP             0       ****    0 ROOT    
