@<TRIPOS>MOLECULE
3R135
127   129    1
SMALL
USER_CHARGES


@<TRIPOS>ATOM
      1 CA        -85.2411   25.7040  -71.8820 C.3       0 UNK        -0.1998 
      2 C         -84.5549   26.4569  -73.0119 C.2       0 UNK         0.4909 
      3 O         -85.1764   26.7095  -74.0445 O.2       0 UNK        -0.5240 
      4 N         -83.2785   26.8192  -72.8231 N.am      1 UNK        -0.4739 
      5 CA        -82.4528   27.5242  -73.8148 C.3       1 UNK         0.0864 
      6 C6        -81.1881   28.1336  -73.1578 C.3       11 UNK        -0.0881 
      7 S7        -80.6727   29.6950  -73.9463 S.3       11 UNK        -0.2682 
      8 C8        -79.9100   30.5700  -72.5454 C.3       11 UNK         0.0289 
      9 C9        -78.5351   30.0140  -72.1988 C.ar      11 UNK        -0.0687 
     10 C10       -78.4098   28.8991  -71.3629 C.ar      11 UNK        -0.0823 
     11 C11       -77.1483   28.4199  -70.9970 C.ar      11 UNK        -0.0830 
     12 C12       -76.0056   29.0742  -71.4671 C.ar      11 UNK        -0.1021 
     13 C13       -76.1164   30.1917  -72.2997 C.ar      11 UNK        -0.0753 
     14 C14       -77.3832   30.6499  -72.6716 C.ar      11 UNK        -0.0933 
     15 C15       -74.8729   30.9508  -72.7322 C.3       11 UNK         0.0166 
     16 S16       -74.4502   30.6674  -74.4788 S.3       11 UNK        -0.2615 
     17 C17       -72.8737   31.5947  -74.5545 C.3       11 UNK        -0.0865 
     18 CA        -71.5979   30.7123  -74.6793 C.3       10 UNK         0.0862 
     19 C         -70.3312   31.5863  -74.4396 C.2       10 UNK         0.5551 
     20 N         -69.6435   31.4586  -73.3120 N.am      10 UNK        -0.7319 
     21 O         -69.9794   32.4010  -75.2889 O.2       10 UNK        -0.5018 
     22 N         -71.7056   29.4706  -73.8930 N.am      10 UNK        -0.4509 
     23 C         -70.8262   28.4610  -73.8657 C.2       10 UNK         0.4899 
     24 O         -69.7032   28.5002  -74.3676 O.2       10 UNK        -0.4839 
     25 CA        -71.3211   27.1526  -73.2282 C.3       9 UNK         0.0222 
     26 CB        -72.2571   27.3703  -72.0226 C.3       9 UNK        -0.1966 
     27 N         -72.0222   26.3952  -74.2626 N.am      9 UNK        -0.4218 
     28 C         -71.4174   25.6275  -75.1809 C.2       9 UNK         0.5020 
     29 O         -70.2400   25.2701  -75.1164 O.2       9 UNK        -0.5274 
     30 CA        -72.2578   25.2151  -76.4009 C.3       8 UNK         0.0270 
     31 CB        -73.1130   23.9802  -76.0825 C.3       8 UNK        -0.1976 
     32 N         -73.1148   26.2976  -76.8932 N.am      8 UNK        -0.4313 
     33 C         -72.6896   27.4602  -77.4077 C.2       8 UNK         0.5041 
     34 O         -71.5021   27.7203  -77.6022 O.2       8 UNK        -0.5577 
     35 CA        -73.7427   28.5343  -77.7520 C.3       7 UNK         0.0284 
     36 CB        -74.0803   28.5229  -79.2560 C.3       7 UNK        -0.1958 
     37 N         -74.9562   28.4999  -76.9211 N.am      7 UNK        -0.4454 
     38 C         -75.9115   27.5641  -76.8775 C.2       7 UNK         0.5089 
     39 O         -75.9341   26.5659  -77.5981 O.2       7 UNK        -0.5125 
     40 CA        -76.9822   27.7315  -75.7897 C.3       6 UNK         0.0408 
     41 CB        -78.3700   27.9159  -76.4213 C.3       6 UNK        -0.1791 
     42 N         -77.0045   26.5739  -74.8933 N.am      6 UNK        -0.4762 
     43 C         -75.9757   26.1761  -74.1273 C.2       6 UNK         0.5007 
     44 O         -74.8784   26.7377  -74.1103 O.2       6 UNK        -0.5032 
     45 CA        -76.1823   24.9150  -73.2725 C.3       5 UNK         0.0783 
     46 C46       -77.0121   25.1977  -71.9955 C.3       11 UNK        -0.0857 
     47 S47       -75.9797   25.8940  -70.6636 S.3       11 UNK        -0.2512 
     48 C48       -77.0265   27.2453  -70.0325 C.3       11 UNK         0.0225 
     49 N         -76.7689   23.8440  -74.0807 N.am      5 UNK        -0.4615 
     50 C         -76.2432   22.6180  -74.2194 C.2       4 UNK         0.5053 
     51 O         -75.2282   22.2396  -73.6343 O.2       4 UNK        -0.5105 
     52 CA        -76.9575   21.6324  -75.1661 C.3       4 UNK         0.0263 
     53 CB        -77.8098   20.6385  -74.3603 C.3       4 UNK        -0.1981 
     54 N         -77.8085   22.2956  -76.1539 N.am      4 UNK        -0.4224 
     55 C         -77.3671   23.0569  -77.1646 C.2       3 UNK         0.4895 
     56 O         -76.1820   23.1347  -77.4841 O.2       3 UNK        -0.5091 
     57 CA        -78.4124   23.8843  -77.9408 C.3       3 UNK         0.0250 
     58 CB        -78.5312   23.3815  -79.3894 C.3       3 UNK        -0.1996 
     59 N         -79.7543   23.9240  -77.3408 N.am      3 UNK        -0.4254 
     60 C         -80.0710   24.4239  -76.1380 C.2       2 UNK         0.5004 
     61 O         -79.2453   24.8765  -75.3385 O.2       2 UNK        -0.5226 
     62 CA        -81.5481   24.3045  -75.7332 C.3       2 UNK         0.0269 
     63 CB        -81.8228   22.9139  -75.1365 C.3       2 UNK        -0.1926 
     64 N         -81.9293   25.3175  -74.7512 N.am      2 UNK        -0.4687 
     65 C         -82.0824   26.6231  -75.0136 C.2       1 UNK         0.5165 
     66 O         -81.9681   27.1111  -76.1391 O.2       1 UNK        -0.5079 
     67 H67       -85.5690   24.7245  -72.2291 H         1 UNK         0.0900 
     68 H68       -86.1168   26.2557  -71.5413 H         1 UNK         0.0900 
     69 H69       -84.5800   25.5573  -71.0280 H         1 UNK         0.0900 
     70 H70       -82.8250   26.5902  -71.9498 H         1 UNK         0.2959 
     71 H71       -83.0669   28.3376  -74.2091 H         1 UNK         0.1079 
     72 H72       -81.3957   28.3545  -72.1100 H         1 UNK         0.0837 
     73 H73       -80.3490   27.4339  -73.1538 H         1 UNK         0.0837 
     74 H74       -79.8283   31.6267  -72.8043 H         1 UNK         0.0685 
     75 H75       -80.5662   30.5274  -71.6748 H         1 UNK         0.0685 
     76 H76       -79.2968   28.4188  -70.9756 H         1 UNK         0.1434 
     77 H77       -75.0305   28.7249  -71.1591 H         1 UNK         0.1329 
     78 H78       -77.4701   31.5214  -73.3062 H         1 UNK         0.1335 
     79 H79       -75.0312   32.0184  -72.5712 H         1 UNK         0.0680 
     80 H80       -74.0239   30.6701  -72.1065 H         1 UNK         0.0680 
     81 H81       -72.8053   32.2381  -73.6747 H         1 UNK         0.1032 
     82 H82       -72.9291   32.2784  -75.4038 H         1 UNK         0.1032 
     83 H83       -71.5376   30.3821  -75.7181 H         1 UNK         0.0461 
     84 H84       -68.8250   32.0272  -73.1624 H         1 UNK         0.3453 
     85 H85       -69.9215   30.7791  -72.6224 H         1 UNK         0.3453 
     86 H86       -72.6088   29.3223  -73.4682 H         1 UNK         0.2984 
     87 H87       -70.4497   26.5930  -72.8817 H         1 UNK         0.0554 
     88 H88       -72.4998   26.4220  -71.5426 H         1 UNK         0.0847 
     89 H89       -73.1998   27.8363  -72.3074 H         1 UNK         0.0847 
     90 H90       -71.7870   28.0023  -71.2681 H         1 UNK         0.0847 
     91 H91       -73.0117   26.6043  -74.3808 H         1 UNK         0.3141 
     92 H92       -71.5658   24.9519  -77.2036 H         1 UNK         0.0743 
     93 H93       -73.8779   24.2000  -75.3382 H         1 UNK         0.0784 
     94 H94       -73.6118   23.6064  -76.9763 H         1 UNK         0.0784 
     95 H95       -72.5004   23.1670  -75.6911 H         1 UNK         0.0784 
     96 H96       -74.1185   26.1557  -76.8437 H         1 UNK         0.3213 
     97 H97       -73.2749   29.4955  -77.5321 H         1 UNK         0.0855 
     98 H98       -73.1819   28.6784  -79.8548 H         1 UNK         0.0814 
     99 H99       -74.7817   29.3169  -79.5117 H         1 UNK         0.0814 
    100 H100      -74.5155   27.5744  -79.5716 H         1 UNK         0.0814 
    101 H101      -75.0054   29.2356  -76.2253 H         1 UNK         0.3105 
    102 H102      -76.7591   28.6124  -75.1840 H         1 UNK         0.0547 
    103 H103      -78.4199   28.8450  -76.9898 H         1 UNK         0.0837 
    104 H104      -78.6193   27.1020  -77.1023 H         1 UNK         0.0837 
    105 H105      -79.1490   27.9549  -75.6623 H         1 UNK         0.0837 
    106 H106      -77.8579   26.0210  -74.9104 H         1 UNK         0.3020 
    107 H107      -75.1812   24.6064  -72.9612 H         1 UNK         0.1245 
    108 H108      -77.4318   24.2675  -71.6094 H         1 UNK         0.0781 
    109 H109      -77.8672   25.8436  -72.2056 H         1 UNK         0.0781 
    110 H110      -76.5961   27.6093  -69.0986 H         1 UNK         0.0836 
    111 H111      -78.0076   26.8414  -69.7775 H         1 UNK         0.0836 
    112 H112      -77.6078   24.0817  -74.6010 H         1 UNK         0.3022 
    113 H113      -76.1868   21.0733  -75.7010 H         1 UNK         0.0747 
    114 H114      -78.2681   19.8911  -75.0083 H         1 UNK         0.0793 
    115 H115      -77.1993   20.1023  -73.6322 H         1 UNK         0.0793 
    116 H116      -78.6060   21.1417  -73.8099 H         1 UNK         0.0793 
    117 H117      -78.8018   22.2783  -75.9793 H         1 UNK         0.3047 
    118 H118      -78.0373   24.9087  -77.9671 H         1 UNK         0.0822 
    119 H119      -79.1889   24.0198  -79.9797 H         1 UNK         0.0807 
    120 H120      -78.9196   22.3632  -79.4326 H         1 UNK         0.0807 
    121 H121      -77.5587   23.3806  -79.8842 H         1 UNK         0.0807 
    122 H122      -80.4975   23.5440  -77.9101 H         1 UNK         0.2946 
    123 H123      -82.1679   24.4407  -76.6227 H         1 UNK         0.1144 
    124 H124      -81.5974   22.1237  -75.8540 H         1 UNK         0.0793 
    125 H125      -82.8711   22.8025  -74.8582 H         1 UNK         0.0793 
    126 H126      -81.2189   22.7290  -74.2467 H         1 UNK         0.0793 
    127 H127      -82.0288   25.0094  -73.7955 H         1 UNK         0.2896 
@<TRIPOS>BOND
     1    1    2 1    
     2    1   67 1    
     3    1   68 1    
     4    1   69 1    
     5    2    3 2    
     6    2    4 am   BACKBONE|DICT|INTERRES
     7    4    5 1    
     8    4   70 1    
     9    5    6 1    
    10    5   65 1    
    11    5   71 1    
    12    6    7 1    
    13    6   72 1    
    14    6   73 1    
    15    7    8 1    
    16    8    9 1    
    17    8   74 1    
    18    8   75 1    
    19    9   10 ar   
    20    9   14 ar   
    21   10   11 ar   
    22   10   76 1    
    23   11   12 ar   
    24   11   48 1    
    25   12   13 ar   
    26   12   77 1    
    27   13   14 ar   
    28   13   15 1    
    29   14   78 1    
    30   15   16 1    
    31   15   79 1    
    32   15   80 1    
    33   16   17 1    
    34   17   18 1    
    35   17   81 1    
    36   17   82 1    
    37   18   19 1    
    38   18   22 1    
    39   18   83 1    
    40   19   20 am   BACKBONE|DICT|INTERRES
    41   19   21 2    
    42   20   84 1    
    43   20   85 1    
    44   22   23 am   BACKBONE|DICT|INTERRES
    45   22   86 1    
    46   23   24 2    
    47   23   25 1    
    48   25   26 1    
    49   25   27 1    
    50   25   87 1    
    51   26   88 1    
    52   26   89 1    
    53   26   90 1    
    54   27   28 am   BACKBONE|DICT|INTERRES
    55   27   91 1    
    56   28   29 2    
    57   28   30 1    
    58   30   31 1    
    59   30   32 1    
    60   30   92 1    
    61   31   93 1    
    62   31   94 1    
    63   31   95 1    
    64   32   33 am   BACKBONE|DICT|INTERRES
    65   32   96 1    
    66   33   34 2    
    67   33   35 1    
    68   35   36 1    
    69   35   37 1    
    70   35   97 1    
    71   36   98 1    
    72   36   99 1    
    73   36  100 1    
    74   37   38 am   BACKBONE|DICT|INTERRES
    75   37  101 1    
    76   38   39 2    
    77   38   40 1    
    78   40   41 1    
    79   40   42 1    
    80   40  102 1    
    81   41  103 1    
    82   41  104 1    
    83   41  105 1    
    84   42   43 am   BACKBONE|DICT|INTERRES
    85   42  106 1    
    86   43   44 2    
    87   43   45 1    
    88   45   46 1    
    89   45   49 1    
    90   45  107 1    
    91   46   47 1    
    92   46  108 1    
    93   46  109 1    
    94   47   48 1    
    95   48  110 1    
    96   48  111 1    
    97   49   50 am   BACKBONE|DICT|INTERRES
    98   49  112 1    
    99   50   51 2    
   100   50   52 1    
   101   52   53 1    
   102   52   54 1    
   103   52  113 1    
   104   53  114 1    
   105   53  115 1    
   106   53  116 1    
   107   54   55 am   BACKBONE|DICT|INTERRES
   108   54  117 1    
   109   55   56 2    
   110   55   57 1    
   111   57   58 1    
   112   57   59 1    
   113   57  118 1    
   114   58  119 1    
   115   58  120 1    
   116   58  121 1    
   117   59   60 am   BACKBONE|DICT|INTERRES
   118   59  122 1    
   119   60   61 2    
   120   60   62 1    
   121   62   63 1    
   122   62   64 1    
   123   62  123 1    
   124   63  124 1    
   125   63  125 1    
   126   63  126 1    
   127   64   65 am   BACKBONE|DICT|INTERRES
   128   64  127 1    
   129   65   66 2    
@<TRIPOS>SUBSTRUCTURE
     1 UNK         1 GROUP             0       ****    0 ROOT    
