@<TRIPOS>MOLECULE
3R135
127   129    1
SMALL
USER_CHARGES


@<TRIPOS>ATOM
      1 CA        -82.4516   27.0854  -69.7957 C.3       0 UNK        -0.1998 
      2 C         -83.1426   26.8883  -71.1366 C.2       0 UNK         0.4909 
      3 O         -84.1200   26.1445  -71.2202 O.2       0 UNK        -0.5240 
      4 N         -82.6401   27.5487  -72.1880 N.am      1 UNK        -0.4739 
      5 CA        -83.1534   27.4608  -73.5620 C.3       1 UNK         0.0864 
      6 C6        -82.7408   28.6993  -74.4021 C.3       11 UNK        -0.0881 
      7 S7        -80.9404   28.8465  -74.6793 S.3       11 UNK        -0.2682 
      8 C8        -80.4437   30.0307  -73.3924 C.3       11 UNK         0.0289 
      9 C9        -79.0189   29.7441  -72.9502 C.ar      11 UNK        -0.0687 
     10 C10       -78.7757   28.8162  -71.9326 C.ar      11 UNK        -0.0823 
     11 C11       -77.4680   28.5065  -71.5498 C.ar      11 UNK        -0.0830 
     12 C12       -76.4020   29.1472  -72.1868 C.ar      11 UNK        -0.1021 
     13 C13       -76.6295   30.0650  -73.2163 C.ar      11 UNK        -0.0753 
     14 C14       -77.9426   30.3690  -73.5865 C.ar      11 UNK        -0.0933 
     15 C15       -75.4595   30.6302  -74.0077 C.3       11 UNK         0.0166 
     16 S16       -74.2269   31.4778  -72.9725 S.3       11 UNK        -0.2615 
     17 C17       -72.8491   31.7617  -74.1501 C.3       11 UNK        -0.0865 
     18 CA        -72.4639   30.5637  -75.0795 C.3       10 UNK         0.0862 
     19 C         -71.2596   30.8750  -76.0173 C.2       10 UNK         0.5551 
     20 N         -70.6622   29.8777  -76.6590 N.am      10 UNK        -0.7319 
     21 O         -70.8658   32.0277  -76.1816 O.2       10 UNK        -0.5018 
     22 N         -72.3309   29.2843  -74.3610 N.am      10 UNK        -0.4509 
     23 C         -71.4461   29.0238  -73.3891 C.2       10 UNK         0.4899 
     24 O         -70.6121   29.8289  -72.9734 O.2       10 UNK        -0.4839 
     25 CA        -71.4943   27.6190  -72.7746 C.3       9 UNK         0.0222 
     26 CB        -72.5369   27.5424  -71.6492 C.3       9 UNK        -0.1966 
     27 N         -71.7783   26.6011  -73.7879 N.am      9 UNK        -0.4218 
     28 C         -70.8217   25.9914  -74.4995 C.2       9 UNK         0.5020 
     29 O         -69.6168   26.2095  -74.3596 O.2       9 UNK        -0.5274 
     30 CA        -71.2653   24.9401  -75.5249 C.3       8 UNK         0.0270 
     31 CB        -71.4851   23.5834  -74.8355 C.3       8 UNK        -0.1976 
     32 N         -72.4530   25.3023  -76.3037 N.am      8 UNK        -0.4313 
     33 C         -72.4808   26.2752  -77.2263 C.2       8 UNK         0.5041 
     34 O         -71.5892   27.1145  -77.3621 O.2       8 UNK        -0.5577 
     35 CA        -73.6766   26.2827  -78.1947 C.3       7 UNK         0.0284 
     36 CB        -73.7837   24.9569  -78.9691 C.3       7 UNK        -0.1958 
     37 N         -74.9360   26.5472  -77.5097 N.am      7 UNK        -0.4454 
     38 C         -75.3337   27.7545  -77.0895 C.2       7 UNK         0.5089 
     39 O         -74.7327   28.8026  -77.3242 O.2       7 UNK        -0.5125 
     40 CA        -76.6055   27.7902  -76.2249 C.3       6 UNK         0.0408 
     41 CB        -77.8612   27.8262  -77.1072 C.3       6 UNK        -0.1791 
     42 N         -76.6926   26.6803  -75.2702 N.am      6 UNK        -0.4762 
     43 C         -75.7490   26.3444  -74.3735 C.2       6 UNK         0.5007 
     44 O         -74.6717   26.9311  -74.2419 O.2       6 UNK        -0.5032 
     45 CA        -76.0220   25.0777  -73.5415 C.3       5 UNK         0.0783 
     46 C46       -76.9646   25.3489  -72.3413 C.3       11 UNK        -0.0857 
     47 S47       -76.0812   26.1391  -70.9524 S.3       11 UNK        -0.2512 
     48 C48       -77.2161   27.4788  -70.4518 C.3       11 UNK         0.0225 
     49 N         -76.5094   23.9879  -74.3925 N.am      5 UNK        -0.4615 
     50 C         -75.7664   23.3594  -75.3154 C.2       4 UNK         0.5053 
     51 O         -74.5822   23.6103  -75.5304 O.2       4 UNK        -0.5105 
     52 CA        -76.4734   22.3033  -76.1785 C.3       4 UNK         0.0263 
     53 CB        -76.6175   20.9795  -75.4111 C.3       4 UNK        -0.1981 
     54 N         -77.7855   22.7523  -76.6442 N.am      4 UNK        -0.4224 
     55 C         -77.9835   23.7960  -77.4628 C.2       3 UNK         0.4895 
     56 O         -77.0738   24.4509  -77.9722 O.2       3 UNK        -0.5091 
     57 CA        -79.4451   24.1991  -77.7259 C.3       3 UNK         0.0250 
     58 CB        -79.9928   23.4595  -78.9567 C.3       3 UNK        -0.1996 
     59 N         -80.3377   23.9769  -76.5815 N.am      3 UNK        -0.4254 
     60 C         -80.2021   24.5574  -75.3809 C.2       2 UNK         0.5004 
     61 O         -79.2767   25.3163  -75.0816 O.2       2 UNK        -0.5226 
     62 CA        -81.2412   24.1884  -74.3147 C.3       2 UNK         0.0269 
     63 CB        -80.5972   23.3384  -73.2066 C.3       2 UNK        -0.1926 
     64 N         -81.7959   25.4036  -73.7254 N.am      2 UNK        -0.4687 
     65 C         -82.7846   26.1317  -74.2642 C.2       1 UNK         0.5165 
     66 O         -83.4001   25.7933  -75.2769 O.2       1 UNK        -0.5079 
     67 H67       -82.0302   26.1422  -69.4489 H         1 UNK         0.0900 
     68 H68       -83.1690   27.4315  -69.0520 H         1 UNK         0.0900 
     69 H69       -81.6463   27.8174  -69.8531 H         1 UNK         0.0900 
     70 H70       -81.8376   28.1469  -72.0672 H         1 UNK         0.2959 
     71 H71       -84.2443   27.4679  -73.5010 H         1 UNK         0.1079 
     72 H72       -83.2266   28.6632  -75.3791 H         1 UNK         0.0837 
     73 H73       -83.1121   29.6112  -73.9316 H         1 UNK         0.0837 
     74 H74       -80.5300   31.0459  -73.7826 H         1 UNK         0.0685 
     75 H75       -81.1151   29.9728  -72.5351 H         1 UNK         0.0685 
     76 H76       -79.6056   28.3211  -71.4498 H         1 UNK         0.1434 
     77 H77       -75.3883   28.9034  -71.9076 H         1 UNK         0.1329 
     78 H78       -78.1293   31.0591  -74.3979 H         1 UNK         0.1335 
     79 H79       -74.9906   29.7848  -74.5052 H         1 UNK         0.0680 
     80 H80       -75.7997   31.3102  -74.7902 H         1 UNK         0.0680 
     81 H81       -71.9813   32.0723  -73.5660 H         1 UNK         0.1032 
     82 H82       -73.1134   32.6273  -74.7600 H         1 UNK         0.1032 
     83 H83       -73.2886   30.4275  -75.7767 H         1 UNK         0.0461 
     84 H84       -69.8854   30.0835  -77.2660 H         1 UNK         0.3453 
     85 H85       -71.0171   28.9283  -76.6088 H         1 UNK         0.3453 
     86 H86       -72.9774   28.5555  -74.6316 H         1 UNK         0.2984 
     87 H87       -70.5196   27.4231  -72.3221 H         1 UNK         0.0554 
     88 H88       -72.5131   26.5733  -71.1510 H         1 UNK         0.0847 
     89 H89       -73.5457   27.6964  -72.0250 H         1 UNK         0.0847 
     90 H90       -72.3517   28.3039  -70.8906 H         1 UNK         0.0847 
     91 H91       -72.7553   26.4172  -73.9968 H         1 UNK         0.3141 
     92 H92       -70.4442   24.8181  -76.2348 H         1 UNK         0.0743 
     93 H93       -72.2897   23.6296  -74.1007 H         1 UNK         0.0784 
     94 H94       -71.7351   22.8058  -75.5576 H         1 UNK         0.0784 
     95 H95       -70.5843   23.2615  -74.3113 H         1 UNK         0.0784 
     96 H96       -73.2614   24.6908  -76.1958 H         1 UNK         0.3213 
     97 H97       -73.5050   27.0782  -78.9234 H         1 UNK         0.0855 
     98 H98       -72.8445   24.7192  -79.4704 H         1 UNK         0.0814 
     99 H99       -74.5558   25.0127  -79.7368 H         1 UNK         0.0814 
    100 H100      -74.0299   24.1181  -78.3168 H         1 UNK         0.0814 
    101 H101      -75.5336   25.7508  -77.3153 H         1 UNK         0.3105 
    102 H102      -76.5958   28.7093  -75.6453 H         1 UNK         0.0547 
    103 H103      -78.7716   27.8011  -76.5087 H         1 UNK         0.0837 
    104 H104      -77.8903   26.9886  -77.8022 H         1 UNK         0.0837 
    105 H105      -77.8881   28.7395  -77.7023 H         1 UNK         0.0837 
    106 H106      -77.5575   26.1436  -75.2788 H         1 UNK         0.3020 
    107 H107      -75.0584   24.7483  -73.1445 H         1 UNK         0.1245 
    108 H108      -77.3630   24.4077  -71.9600 H         1 UNK         0.0781 
    109 H109      -77.8325   25.9397  -72.6413 H         1 UNK         0.0781 
    110 H110      -76.7918   27.9903  -69.5870 H         1 UNK         0.0836 
    111 H111      -78.1521   27.0316  -70.1134 H         1 UNK         0.0836 
    112 H112      -77.4949   23.7786  -74.3353 H         1 UNK         0.3022 
    113 H113      -75.8504   22.1229  -77.0574 H         1 UNK         0.0747 
    114 H114      -77.0409   20.1990  -76.0435 H         1 UNK         0.0793 
    115 H115      -75.6459   20.6225  -75.0663 H         1 UNK         0.0793 
    116 H116      -77.2564   21.0843  -74.5333 H         1 UNK         0.0793 
    117 H117      -78.5935   22.2654  -76.2856 H         1 UNK         0.3047 
    118 H118      -79.4566   25.2685  -77.9418 H         1 UNK         0.0822 
    119 H119      -80.9929   23.8070  -79.2167 H         1 UNK         0.0807 
    120 H120      -80.0421   22.3821  -78.7942 H         1 UNK         0.0807 
    121 H121      -79.3576   23.6289  -79.8275 H         1 UNK         0.0807 
    122 H122      -81.1250   23.3641  -76.7401 H         1 UNK         0.2946 
    123 H123      -82.0472   23.6094  -74.7717 H         1 UNK         0.1144 
    124 H124      -80.1758   22.4181  -73.6132 H         1 UNK         0.0793 
    125 H125      -81.3307   23.0519  -72.4527 H         1 UNK         0.0793 
    126 H126      -79.7916   23.8725  -72.7014 H         1 UNK         0.0793 
    127 H127      -81.3122   25.7824  -72.9253 H         1 UNK         0.2896 
@<TRIPOS>BOND
     1    1    2 1    
     2    1   67 1    
     3    1   68 1    
     4    1   69 1    
     5    2    3 2    
     6    2    4 am   BACKBONE|DICT|INTERRES
     7    4    5 1    
     8    4   70 1    
     9    5    6 1    
    10    5   65 1    
    11    5   71 1    
    12    6    7 1    
    13    6   72 1    
    14    6   73 1    
    15    7    8 1    
    16    8    9 1    
    17    8   74 1    
    18    8   75 1    
    19    9   10 ar   
    20    9   14 ar   
    21   10   11 ar   
    22   10   76 1    
    23   11   12 ar   
    24   11   48 1    
    25   12   13 ar   
    26   12   77 1    
    27   13   14 ar   
    28   13   15 1    
    29   14   78 1    
    30   15   16 1    
    31   15   79 1    
    32   15   80 1    
    33   16   17 1    
    34   17   18 1    
    35   17   81 1    
    36   17   82 1    
    37   18   19 1    
    38   18   22 1    
    39   18   83 1    
    40   19   20 am   BACKBONE|DICT|INTERRES
    41   19   21 2    
    42   20   84 1    
    43   20   85 1    
    44   22   23 am   BACKBONE|DICT|INTERRES
    45   22   86 1    
    46   23   24 2    
    47   23   25 1    
    48   25   26 1    
    49   25   27 1    
    50   25   87 1    
    51   26   88 1    
    52   26   89 1    
    53   26   90 1    
    54   27   28 am   BACKBONE|DICT|INTERRES
    55   27   91 1    
    56   28   29 2    
    57   28   30 1    
    58   30   31 1    
    59   30   32 1    
    60   30   92 1    
    61   31   93 1    
    62   31   94 1    
    63   31   95 1    
    64   32   33 am   BACKBONE|DICT|INTERRES
    65   32   96 1    
    66   33   34 2    
    67   33   35 1    
    68   35   36 1    
    69   35   37 1    
    70   35   97 1    
    71   36   98 1    
    72   36   99 1    
    73   36  100 1    
    74   37   38 am   BACKBONE|DICT|INTERRES
    75   37  101 1    
    76   38   39 2    
    77   38   40 1    
    78   40   41 1    
    79   40   42 1    
    80   40  102 1    
    81   41  103 1    
    82   41  104 1    
    83   41  105 1    
    84   42   43 am   BACKBONE|DICT|INTERRES
    85   42  106 1    
    86   43   44 2    
    87   43   45 1    
    88   45   46 1    
    89   45   49 1    
    90   45  107 1    
    91   46   47 1    
    92   46  108 1    
    93   46  109 1    
    94   47   48 1    
    95   48  110 1    
    96   48  111 1    
    97   49   50 am   BACKBONE|DICT|INTERRES
    98   49  112 1    
    99   50   51 2    
   100   50   52 1    
   101   52   53 1    
   102   52   54 1    
   103   52  113 1    
   104   53  114 1    
   105   53  115 1    
   106   53  116 1    
   107   54   55 am   BACKBONE|DICT|INTERRES
   108   54  117 1    
   109   55   56 2    
   110   55   57 1    
   111   57   58 1    
   112   57   59 1    
   113   57  118 1    
   114   58  119 1    
   115   58  120 1    
   116   58  121 1    
   117   59   60 am   BACKBONE|DICT|INTERRES
   118   59  122 1    
   119   60   61 2    
   120   60   62 1    
   121   62   63 1    
   122   62   64 1    
   123   62  123 1    
   124   63  124 1    
   125   63  125 1    
   126   63  126 1    
   127   64   65 am   BACKBONE|DICT|INTERRES
   128   64  127 1    
   129   65   66 2    
@<TRIPOS>SUBSTRUCTURE
     1 UNK         1 GROUP             0       ****    0 ROOT    
