@<TRIPOS>MOLECULE
3R135
127   129    1
SMALL
USER_CHARGES


@<TRIPOS>ATOM
      1 CA        -79.7826   22.8167  -71.1822 C.3       0 UNK        -0.1998 
      2 C         -80.5777   23.7721  -72.0580 C.2       0 UNK         0.4909 
      3 O         -81.3054   23.3221  -72.9439 O.2       0 UNK        -0.5240 
      4 N         -80.4364   25.0846  -71.8212 N.am      1 UNK        -0.4739 
      5 CA        -81.0930   26.1786  -72.5494 C.3       1 UNK         0.0864 
      6 C6        -80.6318   27.5654  -72.0450 C.3       11 UNK        -0.0881 
      7 S7        -80.8733   27.8410  -70.2609 S.3       11 UNK        -0.2682 
      8 C8        -80.6179   29.6450  -70.1676 C.3       11 UNK         0.0289 
      9 C9        -79.2968   30.0718  -70.7966 C.ar      11 UNK        -0.0687 
     10 C10       -79.2710   30.6056  -72.0899 C.ar      11 UNK        -0.0823 
     11 C11       -78.0608   30.9733  -72.6862 C.ar      11 UNK        -0.0830 
     12 C12       -76.8716   30.8270  -71.9650 C.ar      11 UNK        -0.1021 
     13 C13       -76.8830   30.2845  -70.6762 C.ar      11 UNK        -0.0753 
     14 C14       -78.0989   29.9136  -70.0950 C.ar      11 UNK        -0.0933 
     15 C15       -75.5846   30.1026  -69.9056 C.3       11 UNK         0.0166 
     16 S16       -74.9711   28.3886  -69.9918 S.3       11 UNK        -0.2615 
     17 C17       -74.3352   28.2978  -71.7006 C.3       11 UNK        -0.0865 
     18 CA        -72.9002   28.8733  -71.8312 C.3       10 UNK         0.0862 
     19 C         -71.8214   27.8687  -71.3381 C.2       10 UNK         0.5551 
     20 N         -71.3732   27.9938  -70.0968 N.am      10 UNK        -0.7319 
     21 O         -71.4138   26.9622  -72.0617 O.2       10 UNK        -0.5018 
     22 N         -72.6499   29.3109  -73.2076 N.am      10 UNK        -0.4509 
     23 C         -71.6318   30.0787  -73.6075 C.2       10 UNK         0.4899 
     24 O         -70.8336   30.6165  -72.8381 O.2       10 UNK        -0.4839 
     25 CA        -71.4782   30.2487  -75.1333 C.3       9 UNK         0.0222 
     26 CB        -70.4123   31.2957  -75.5080 C.3       9 UNK        -0.1966 
     27 N         -71.1519   28.9786  -75.7912 N.am      9 UNK        -0.4218 
     28 C         -72.0088   27.9686  -75.9888 C.2       9 UNK         0.5020 
     29 O         -73.1955   28.0084  -75.6592 O.2       9 UNK        -0.5274 
     30 CA        -71.4344   26.6952  -76.6155 C.3       8 UNK         0.0270 
     31 CB        -70.6139   25.8986  -75.5832 C.3       8 UNK        -0.1976 
     32 N         -72.5290   25.8670  -77.1159 N.am      8 UNK        -0.4313 
     33 C         -72.4278   24.9822  -78.1143 C.2       8 UNK         0.5041 
     34 O         -71.3846   24.7673  -78.7340 O.2       8 UNK        -0.5577 
     35 CA        -73.6934   24.2014  -78.4947 C.3       7 UNK         0.0284 
     36 CB        -73.8876   22.9938  -77.5623 C.3       7 UNK        -0.1958 
     37 N         -74.8896   25.0438  -78.4633 N.am      7 UNK        -0.4454 
     38 C         -75.3505   25.7420  -79.5110 C.2       7 UNK         0.5089 
     39 O         -74.7974   25.7659  -80.6112 O.2       7 UNK        -0.5125 
     40 CA        -76.6644   26.5244  -79.3248 C.3       6 UNK         0.0408 
     41 CB        -77.8395   25.7239  -79.9060 C.3       6 UNK        -0.1791 
     42 N         -76.9449   26.8450  -77.9237 N.am      6 UNK        -0.4762 
     43 C         -76.3606   27.8479  -77.2513 C.2       6 UNK         0.5007 
     44 O         -75.6095   28.6661  -77.7829 O.2       6 UNK        -0.5032 
     45 CA        -76.6373   27.9311  -75.7327 C.3       5 UNK         0.0783 
     46 C46       -77.6818   29.0234  -75.3789 C.3       11 UNK        -0.0857 
     47 S47       -76.9105   30.6714  -75.2279 S.3       11 UNK        -0.2512 
     48 C48       -78.0488   31.5458  -74.1001 C.3       11 UNK         0.0225 
     49 N         -76.9923   26.6357  -75.1414 N.am      5 UNK        -0.4615 
     50 C         -76.1625   25.5906  -75.0258 C.2       4 UNK         0.5053 
     51 O         -75.0414   25.5471  -75.5292 O.2       4 UNK        -0.5105 
     52 CA        -76.6787   24.3854  -74.2352 C.3       4 UNK         0.0263 
     53 CB        -76.8696   24.7502  -72.7523 C.3       4 UNK        -0.1981 
     54 N         -77.9388   23.8927  -74.7919 N.am      4 UNK        -0.4224 
     55 C         -78.0446   22.8504  -75.6290 C.2       3 UNK         0.4895 
     56 O         -77.0790   22.2118  -76.0475 O.2       3 UNK        -0.5091 
     57 CA        -79.4577   22.4173  -76.0630 C.3       3 UNK         0.0250 
     58 CB        -79.8849   21.1513  -75.3019 C.3       3 UNK        -0.1996 
     59 N         -80.4676   23.4591  -75.8632 N.am      3 UNK        -0.4254 
     60 C         -80.6871   24.4632  -76.7245 C.2       2 UNK         0.5004 
     61 O         -80.1018   24.5775  -77.8001 O.2       2 UNK        -0.5226 
     62 CA        -81.7039   25.5452  -76.3119 C.3       2 UNK         0.0269 
     63 CB        -83.0896   25.2312  -76.8980 C.3       2 UNK        -0.1926 
     64 N         -81.8229   25.7393  -74.8620 N.am      2 UNK        -0.4687 
     65 C         -80.8083   26.0851  -74.0591 C.2       1 UNK         0.5165 
     66 O         -79.6598   26.2832  -74.4603 O.2       1 UNK        -0.5079 
     67 H67       -80.4580   22.1489  -70.6484 H         1 UNK         0.0900 
     68 H68       -79.1190   22.2096  -71.7974 H         1 UNK         0.0900 
     69 H69       -79.1762   23.3455  -70.4471 H         1 UNK         0.0900 
     70 H70       -79.8332   25.3860  -71.0692 H         1 UNK         0.2959 
     71 H71       -82.1684   26.0880  -72.3843 H         1 UNK         0.1079 
     72 H72       -81.1636   28.3518  -72.5846 H         1 UNK         0.0837 
     73 H73       -79.5695   27.7106  -72.2551 H         1 UNK         0.0837 
     74 H74       -81.4538   30.1498  -70.6547 H         1 UNK         0.0685 
     75 H75       -80.6435   29.9538  -69.1216 H         1 UNK         0.0685 
     76 H76       -80.1964   30.7238  -72.6369 H         1 UNK         0.1434 
     77 H77       -75.9338   31.1211  -72.4167 H         1 UNK         0.1329 
     78 H78       -78.1119   29.4887  -69.1004 H         1 UNK         0.1335 
     79 H79       -74.8197   30.7891  -70.2713 H         1 UNK         0.0680 
     80 H80       -75.7468   30.3624  -68.8584 H         1 UNK         0.0680 
     81 H81       -74.3730   27.2607  -72.0402 H         1 UNK         0.1032 
     82 H82       -75.0259   28.8328  -72.3522 H         1 UNK         0.1032 
     83 H83       -72.8335   29.7717  -71.2144 H         1 UNK         0.0461 
     84 H84       -71.7232   28.7188  -69.4902 H         1 UNK         0.3453 
     85 H85       -70.6824   27.3438  -69.7560 H         1 UNK         0.3453 
     86 H86       -73.1711   28.8348  -73.9390 H         1 UNK         0.2984 
     87 H87       -72.4373   30.6022  -75.5186 H         1 UNK         0.0554 
     88 H88       -70.6387   32.2618  -75.0546 H         1 UNK         0.0847 
     89 H89       -70.3683   31.4497  -76.5863 H         1 UNK         0.0847 
     90 H90       -69.4178   31.0024  -75.1693 H         1 UNK         0.0847 
     91 H91       -70.1859   28.8483  -76.0560 H         1 UNK         0.3141 
     92 H92       -70.7928   26.9895  -77.4489 H         1 UNK         0.0743 
     93 H93       -71.2285   25.5949  -74.7342 H         1 UNK         0.0784 
     94 H94       -70.1844   24.9988  -76.0240 H         1 UNK         0.0784 
     95 H95       -69.7870   26.4909  -75.1900 H         1 UNK         0.0784 
     96 H96       -73.4196   26.0057  -76.6406 H         1 UNK         0.3213 
     97 H97       -73.5525   23.8150  -79.5068 H         1 UNK         0.0855 
     98 H98       -74.0183   23.2950  -76.5226 H         1 UNK         0.0814 
     99 H99       -73.0231   22.3299  -77.6014 H         1 UNK         0.0814 
    100 H100      -74.7602   22.4070  -77.8500 H         1 UNK         0.0814 
    101 H101      -75.3513   25.1383  -77.5670 H         1 UNK         0.3105 
    102 H102      -76.5809   27.4556  -79.8893 H         1 UNK         0.0547 
    103 H103      -77.6932   25.5338  -80.9700 H         1 UNK         0.0837 
    104 H104      -77.9491   24.7556  -79.4161 H         1 UNK         0.0837 
    105 H105      -78.7816   26.2621  -79.8002 H         1 UNK         0.0837 
    106 H106      -77.5682   26.2260  -77.4240 H         1 UNK         0.3020 
    107 H107      -75.6907   28.2112  -75.2673 H         1 UNK         0.1245 
    108 H108      -78.1502   28.7917  -74.4210 H         1 UNK         0.0781 
    109 H109      -78.4958   29.0595  -76.1054 H         1 UNK         0.0781 
    110 H110      -79.0490   31.5343  -74.5361 H         1 UNK         0.0836 
    111 H111      -77.7505   32.5936  -74.0475 H         1 UNK         0.0836 
    112 H112      -77.9369   26.5591  -74.7671 H         1 UNK         0.3022 
    113 H113      -75.9162   23.6049  -74.2857 H         1 UNK         0.0747 
    114 H114      -77.1475   23.8753  -72.1657 H         1 UNK         0.0793 
    115 H115      -75.9451   25.1415  -72.3253 H         1 UNK         0.0793 
    116 H116      -77.6392   25.5094  -72.6095 H         1 UNK         0.0793 
    117 H117      -78.7716   24.4233  -74.5668 H         1 UNK         0.3047 
    118 H118      -79.4096   22.1692  -77.1257 H         1 UNK         0.0822 
    119 H119      -80.8647   20.8032  -75.6294 H         1 UNK         0.0807 
    120 H120      -79.9319   21.3214  -74.2259 H         1 UNK         0.0807 
    121 H121      -79.1793   20.3369  -75.4717 H         1 UNK         0.0807 
    122 H122      -80.9740   23.4436  -74.9825 H         1 UNK         0.2946 
    123 H123      -81.3546   26.4872  -76.7410 H         1 UNK         0.1144 
    124 H124      -83.7961   26.0383  -76.7033 H         1 UNK         0.0793 
    125 H125      -83.5046   24.3119  -76.4826 H         1 UNK         0.0793 
    126 H126      -83.0361   25.1047  -77.9804 H         1 UNK         0.0793 
    127 H127      -82.7273   25.5500  -74.4534 H         1 UNK         0.2896 
@<TRIPOS>BOND
     1    1    2 1    
     2    1   67 1    
     3    1   68 1    
     4    1   69 1    
     5    2    3 2    
     6    2    4 am   BACKBONE|DICT|INTERRES
     7    4    5 1    
     8    4   70 1    
     9    5    6 1    
    10    5   65 1    
    11    5   71 1    
    12    6    7 1    
    13    6   72 1    
    14    6   73 1    
    15    7    8 1    
    16    8    9 1    
    17    8   74 1    
    18    8   75 1    
    19    9   10 ar   
    20    9   14 ar   
    21   10   11 ar   
    22   10   76 1    
    23   11   12 ar   
    24   11   48 1    
    25   12   13 ar   
    26   12   77 1    
    27   13   14 ar   
    28   13   15 1    
    29   14   78 1    
    30   15   16 1    
    31   15   79 1    
    32   15   80 1    
    33   16   17 1    
    34   17   18 1    
    35   17   81 1    
    36   17   82 1    
    37   18   19 1    
    38   18   22 1    
    39   18   83 1    
    40   19   20 am   BACKBONE|DICT|INTERRES
    41   19   21 2    
    42   20   84 1    
    43   20   85 1    
    44   22   23 am   BACKBONE|DICT|INTERRES
    45   22   86 1    
    46   23   24 2    
    47   23   25 1    
    48   25   26 1    
    49   25   27 1    
    50   25   87 1    
    51   26   88 1    
    52   26   89 1    
    53   26   90 1    
    54   27   28 am   BACKBONE|DICT|INTERRES
    55   27   91 1    
    56   28   29 2    
    57   28   30 1    
    58   30   31 1    
    59   30   32 1    
    60   30   92 1    
    61   31   93 1    
    62   31   94 1    
    63   31   95 1    
    64   32   33 am   BACKBONE|DICT|INTERRES
    65   32   96 1    
    66   33   34 2    
    67   33   35 1    
    68   35   36 1    
    69   35   37 1    
    70   35   97 1    
    71   36   98 1    
    72   36   99 1    
    73   36  100 1    
    74   37   38 am   BACKBONE|DICT|INTERRES
    75   37  101 1    
    76   38   39 2    
    77   38   40 1    
    78   40   41 1    
    79   40   42 1    
    80   40  102 1    
    81   41  103 1    
    82   41  104 1    
    83   41  105 1    
    84   42   43 am   BACKBONE|DICT|INTERRES
    85   42  106 1    
    86   43   44 2    
    87   43   45 1    
    88   45   46 1    
    89   45   49 1    
    90   45  107 1    
    91   46   47 1    
    92   46  108 1    
    93   46  109 1    
    94   47   48 1    
    95   48  110 1    
    96   48  111 1    
    97   49   50 am   BACKBONE|DICT|INTERRES
    98   49  112 1    
    99   50   51 2    
   100   50   52 1    
   101   52   53 1    
   102   52   54 1    
   103   52  113 1    
   104   53  114 1    
   105   53  115 1    
   106   53  116 1    
   107   54   55 am   BACKBONE|DICT|INTERRES
   108   54  117 1    
   109   55   56 2    
   110   55   57 1    
   111   57   58 1    
   112   57   59 1    
   113   57  118 1    
   114   58  119 1    
   115   58  120 1    
   116   58  121 1    
   117   59   60 am   BACKBONE|DICT|INTERRES
   118   59  122 1    
   119   60   61 2    
   120   60   62 1    
   121   62   63 1    
   122   62   64 1    
   123   62  123 1    
   124   63  124 1    
   125   63  125 1    
   126   63  126 1    
   127   64   65 am   BACKBONE|DICT|INTERRES
   128   64  127 1    
   129   65   66 2    
@<TRIPOS>SUBSTRUCTURE
     1 UNK         1 GROUP             0       ****    0 ROOT    
