@<TRIPOS>MOLECULE
3R135
127   129    1
SMALL
USER_CHARGES


@<TRIPOS>ATOM
      1 CA        -80.8159   24.3306  -71.4319 C.3       0 UNK        -0.1998 
      2 C         -81.7788   25.2614  -72.1509 C.2       0 UNK         0.4909 
      3 O         -82.9874   25.0257  -72.1375 O.2       0 UNK        -0.5240 
      4 N         -81.2506   26.3242  -72.7720 N.am      1 UNK        -0.4739 
      5 CA        -82.0296   27.3299  -73.5091 C.3       1 UNK         0.0864 
      6 C6        -81.2316   28.6436  -73.7030 C.3       11 UNK        -0.0881 
      7 S7        -81.0621   29.5490  -72.1297 S.3       11 UNK        -0.2682 
      8 C8        -79.4520   30.3849  -72.3370 C.3       11 UNK         0.0289 
      9 C9        -78.2259   29.5165  -72.0532 C.ar      11 UNK        -0.0687 
     10 C10       -78.2580   28.4651  -71.1265 C.ar      11 UNK        -0.0823 
     11 C11       -77.1078   27.7209  -70.8462 C.ar      11 UNK        -0.0830 
     12 C12       -75.9114   28.0483  -71.4891 C.ar      11 UNK        -0.1021 
     13 C13       -75.8607   29.0907  -72.4158 C.ar      11 UNK        -0.0753 
     14 C14       -77.0193   29.8213  -72.6933 C.ar      11 UNK        -0.0933 
     15 C15       -74.5561   29.3910  -73.1353 C.3       11 UNK         0.0166 
     16 S16       -73.3017   30.0767  -72.0052 S.3       11 UNK        -0.2615 
     17 C17       -73.1495   31.7966  -72.6076 C.3       11 UNK        -0.0865 
     18 CA        -71.9764   31.9920  -73.6068 C.3       10 UNK         0.0862 
     19 C         -70.5861   31.9816  -72.9012 C.2       10 UNK         0.5551 
     20 N         -69.6722   31.0725  -73.2238 N.am      10 UNK        -0.7319 
     21 O         -70.3280   32.8306  -72.0512 O.2       10 UNK        -0.5018 
     22 N         -72.0974   31.0684  -74.7419 N.am      10 UNK        -0.4509 
     23 C         -71.5356   31.2230  -75.9442 C.2       10 UNK         0.4899 
     24 O         -70.9272   32.2364  -76.2913 O.2       10 UNK        -0.4839 
     25 CA        -71.6874   30.0356  -76.9161 C.3       9 UNK         0.0222 
     26 CB        -70.5895   30.0131  -78.0003 C.3       9 UNK        -0.1966 
     27 N         -71.7822   28.7261  -76.2508 N.am      9 UNK        -0.4218 
     28 C         -70.8651   28.1479  -75.4541 C.2       9 UNK         0.5020 
     29 O         -69.8316   28.7125  -75.0920 O.2       9 UNK        -0.5274 
     30 CA        -71.1319   26.7100  -74.9556 C.3       8 UNK         0.0270 
     31 CB        -71.3609   26.6918  -73.4349 C.3       8 UNK        -0.1976 
     32 N         -72.2562   26.0442  -75.6217 N.am      8 UNK        -0.4313 
     33 C         -72.2520   25.6374  -76.9017 C.2       8 UNK         0.5041 
     34 O         -71.2488   25.6611  -77.6156 O.2       8 UNK        -0.5577 
     35 CA        -73.5862   25.1609  -77.5141 C.3       7 UNK         0.0284 
     36 CB        -73.6124   23.6271  -77.6147 C.3       7 UNK        -0.1958 
     37 N         -74.7866   25.6073  -76.8002 N.am      7 UNK        -0.4454 
     38 C         -75.1256   26.8743  -76.5200 C.2       7 UNK         0.5089 
     39 O         -74.4839   27.8555  -76.8965 O.2       7 UNK        -0.5125 
     40 CA        -76.3461   27.0782  -75.6051 C.3       6 UNK         0.0408 
     41 CB        -77.5867   27.3883  -76.4491 C.3       6 UNK        -0.1791 
     42 N         -76.6327   25.9455  -74.7146 N.am      6 UNK        -0.4762 
     43 C         -75.7946   25.4041  -73.8168 C.2       6 UNK         0.5007 
     44 O         -74.6311   25.7798  -73.6633 O.2       6 UNK        -0.5032 
     45 CA        -76.3094   24.1878  -73.0166 C.3       5 UNK         0.0783 
     46 C46       -77.2251   24.5846  -71.8276 C.3       11 UNK        -0.0857 
     47 S47       -76.2812   25.0793  -70.3494 S.3       11 UNK        -0.2512 
     48 C48       -77.1621   26.5896  -69.8240 C.3       11 UNK         0.0225 
     49 N         -76.9022   23.1536  -73.8758 N.am      5 UNK        -0.4615 
     50 C         -78.0767   23.1978  -74.5157 C.2       4 UNK         0.5053 
     51 O         -78.8579   24.1531  -74.4682 O.2       4 UNK        -0.5105 
     52 CA        -78.4454   21.9469  -75.3256 C.3       4 UNK         0.0263 
     53 CB        -79.3203   21.0081  -74.4795 C.3       4 UNK        -0.1981 
     54 N         -79.1683   22.3041  -76.5427 N.am      4 UNK        -0.4224 
     55 C         -78.6323   22.9095  -77.6128 C.2       3 UNK         0.4895 
     56 O         -77.4306   23.1479  -77.7409 O.2       3 UNK        -0.5091 
     57 CA        -79.6204   23.3387  -78.7139 C.3       3 UNK         0.0250 
     58 CB        -79.8568   22.1927  -79.7109 C.3       3 UNK        -0.1996 
     59 N         -80.9020   23.7717  -78.1448 N.am      3 UNK        -0.4254 
     60 C         -81.0594   24.9251  -77.4805 C.2       2 UNK         0.5004 
     61 O         -80.2126   25.8183  -77.4714 O.2       2 UNK        -0.5226 
     62 CA        -82.3484   25.1184  -76.6697 C.3       2 UNK         0.0269 
     63 CB        -83.1291   23.8156  -76.3954 C.3       2 UNK        -0.1926 
     64 N         -81.9859   25.7351  -75.3938 N.am      2 UNK        -0.4687 
     65 C         -82.5794   26.8064  -74.8550 C.2       1 UNK         0.5165 
     66 O         -83.5395   27.3812  -75.3715 O.2       1 UNK        -0.5079 
     67 H67       -81.3435   23.7305  -70.6908 H         1 UNK         0.0900 
     68 H68       -80.3424   23.6543  -72.1429 H         1 UNK         0.0900 
     69 H69       -80.0425   24.8953  -70.9129 H         1 UNK         0.0900 
     70 H70       -80.2514   26.4678  -72.7551 H         1 UNK         0.2959 
     71 H71       -82.9140   27.5631  -72.9110 H         1 UNK         0.1079 
     72 H72       -80.2472   28.4391  -74.1283 H         1 UNK         0.0837 
     73 H73       -81.7358   29.3127  -74.4035 H         1 UNK         0.0837 
     74 H74       -79.4229   31.2362  -71.6559 H         1 UNK         0.0685 
     75 H75       -79.4010   30.7980  -73.3458 H         1 UNK         0.0685 
     76 H76       -79.1766   28.2325  -70.6063 H         1 UNK         0.1434 
     77 H77       -75.0126   27.4846  -71.2785 H         1 UNK         0.1329 
     78 H78       -76.9802   30.6345  -73.4052 H         1 UNK         0.1335 
     79 H79       -74.1723   28.4657  -73.5641 H         1 UNK         0.0680 
     80 H80       -74.7271   30.0591  -73.9804 H         1 UNK         0.0680 
     81 H81       -73.0345   32.4564  -71.7454 H         1 UNK         0.1032 
     82 H82       -74.0876   32.1033  -73.0725 H         1 UNK         0.1032 
     83 H83       -72.0786   33.0009  -74.0110 H         1 UNK         0.0461 
     84 H84       -68.7790   31.0896  -72.7587 H         1 UNK         0.3453 
     85 H85       -69.8597   30.3619  -73.9226 H         1 UNK         0.3453 
     86 H86       -72.5411   30.1870  -74.5349 H         1 UNK         0.2984 
     87 H87       -72.6435   30.1826  -77.4205 H         1 UNK         0.0554 
     88 H88       -70.6074   30.9255  -78.5975 H         1 UNK         0.0847 
     89 H89       -70.7265   29.1767  -78.6859 H         1 UNK         0.0847 
     90 H90       -69.5933   29.9294  -77.5645 H         1 UNK         0.0847 
     91 H91       -72.6332   28.2090  -76.4594 H         1 UNK         0.3141 
     92 H92       -70.2294   26.1321  -75.1649 H         1 UNK         0.0743 
     93 H93       -70.5194   27.1410  -72.9055 H         1 UNK         0.0784 
     94 H94       -72.2546   27.2456  -73.1506 H         1 UNK         0.0784 
     95 H95       -71.4695   25.6729  -73.0626 H         1 UNK         0.0784 
     96 H96       -73.1156   25.9644  -75.0861 H         1 UNK         0.3213 
     97 H97       -73.6395   25.5739  -78.5235 H         1 UNK         0.0855 
     98 H98       -73.5865   23.1581  -76.6303 H         1 UNK         0.0814 
     99 H99       -72.7525   23.2571  -78.1751 H         1 UNK         0.0814 
    100 H100      -74.5072   23.2773  -78.1305 H         1 UNK         0.0814 
    101 H101      -75.3995   24.8815  -76.4569 H         1 UNK         0.3105 
    102 H102      -76.1449   27.9434  -74.9752 H         1 UNK         0.0547 
    103 H103      -78.4715   27.5351  -75.8297 H         1 UNK         0.0837 
    104 H104      -77.7947   26.5805  -77.1510 H         1 UNK         0.0837 
    105 H105      -77.4442   28.2977  -77.0342 H         1 UNK         0.0837 
    106 H106      -77.5583   25.5301  -74.7837 H         1 UNK         0.3020 
    107 H107      -75.4197   23.7102  -72.6010 H         1 UNK         0.1245 
    108 H108      -77.8324   23.7302  -71.5259 H         1 UNK         0.0781 
    109 H109      -77.9314   25.3642  -72.1175 H         1 UNK         0.0781 
    110 H110      -76.7202   26.9442  -68.8920 H         1 UNK         0.0836 
    111 H111      -78.1952   26.3252  -69.5931 H         1 UNK         0.0836 
    112 H112      -76.3346   22.3251  -73.9898 H         1 UNK         0.3022 
    113 H113      -77.5328   21.4194  -75.6115 H         1 UNK         0.0747 
    114 H114      -79.5781   20.1024  -75.0289 H         1 UNK         0.0793 
    115 H115      -78.7984   20.6977  -73.5732 H         1 UNK         0.0793 
    116 H116      -80.2492   21.4901  -74.1705 H         1 UNK         0.0793 
    117 H117      -80.1684   22.1816  -76.5188 H         1 UNK         0.3047 
    118 H118      -79.1744   24.1764  -79.2549 H         1 UNK         0.0822 
    119 H119      -80.5108   22.5049  -80.5253 H         1 UNK         0.0807 
    120 H120      -80.3074   21.3223  -79.2324 H         1 UNK         0.0807 
    121 H121      -78.9166   21.8678  -80.1588 H         1 UNK         0.0807 
    122 H122      -81.6585   23.1028  -78.1480 H         1 UNK         0.2946 
    123 H123      -82.9810   25.7906  -77.2539 H         1 UNK         0.1144 
    124 H124      -82.5210   23.0795  -75.8679 H         1 UNK         0.0793 
    125 H125      -83.4893   23.3606  -77.3189 H         1 UNK         0.0793 
    126 H126      -84.0077   24.0126  -75.7805 H         1 UNK         0.0793 
    127 H127      -81.1624   25.3611  -74.9391 H         1 UNK         0.2896 
@<TRIPOS>BOND
     1    1    2 1    
     2    1   67 1    
     3    1   68 1    
     4    1   69 1    
     5    2    3 2    
     6    2    4 am   BACKBONE|DICT|INTERRES
     7    4    5 1    
     8    4   70 1    
     9    5    6 1    
    10    5   65 1    
    11    5   71 1    
    12    6    7 1    
    13    6   72 1    
    14    6   73 1    
    15    7    8 1    
    16    8    9 1    
    17    8   74 1    
    18    8   75 1    
    19    9   10 ar   
    20    9   14 ar   
    21   10   11 ar   
    22   10   76 1    
    23   11   12 ar   
    24   11   48 1    
    25   12   13 ar   
    26   12   77 1    
    27   13   14 ar   
    28   13   15 1    
    29   14   78 1    
    30   15   16 1    
    31   15   79 1    
    32   15   80 1    
    33   16   17 1    
    34   17   18 1    
    35   17   81 1    
    36   17   82 1    
    37   18   19 1    
    38   18   22 1    
    39   18   83 1    
    40   19   20 am   BACKBONE|DICT|INTERRES
    41   19   21 2    
    42   20   84 1    
    43   20   85 1    
    44   22   23 am   BACKBONE|DICT|INTERRES
    45   22   86 1    
    46   23   24 2    
    47   23   25 1    
    48   25   26 1    
    49   25   27 1    
    50   25   87 1    
    51   26   88 1    
    52   26   89 1    
    53   26   90 1    
    54   27   28 am   BACKBONE|DICT|INTERRES
    55   27   91 1    
    56   28   29 2    
    57   28   30 1    
    58   30   31 1    
    59   30   32 1    
    60   30   92 1    
    61   31   93 1    
    62   31   94 1    
    63   31   95 1    
    64   32   33 am   BACKBONE|DICT|INTERRES
    65   32   96 1    
    66   33   34 2    
    67   33   35 1    
    68   35   36 1    
    69   35   37 1    
    70   35   97 1    
    71   36   98 1    
    72   36   99 1    
    73   36  100 1    
    74   37   38 am   BACKBONE|DICT|INTERRES
    75   37  101 1    
    76   38   39 2    
    77   38   40 1    
    78   40   41 1    
    79   40   42 1    
    80   40  102 1    
    81   41  103 1    
    82   41  104 1    
    83   41  105 1    
    84   42   43 am   BACKBONE|DICT|INTERRES
    85   42  106 1    
    86   43   44 2    
    87   43   45 1    
    88   45   46 1    
    89   45   49 1    
    90   45  107 1    
    91   46   47 1    
    92   46  108 1    
    93   46  109 1    
    94   47   48 1    
    95   48  110 1    
    96   48  111 1    
    97   49   50 am   BACKBONE|DICT|INTERRES
    98   49  112 1    
    99   50   51 2    
   100   50   52 1    
   101   52   53 1    
   102   52   54 1    
   103   52  113 1    
   104   53  114 1    
   105   53  115 1    
   106   53  116 1    
   107   54   55 am   BACKBONE|DICT|INTERRES
   108   54  117 1    
   109   55   56 2    
   110   55   57 1    
   111   57   58 1    
   112   57   59 1    
   113   57  118 1    
   114   58  119 1    
   115   58  120 1    
   116   58  121 1    
   117   59   60 am   BACKBONE|DICT|INTERRES
   118   59  122 1    
   119   60   61 2    
   120   60   62 1    
   121   62   63 1    
   122   62   64 1    
   123   62  123 1    
   124   63  124 1    
   125   63  125 1    
   126   63  126 1    
   127   64   65 am   BACKBONE|DICT|INTERRES
   128   64  127 1    
   129   65   66 2    
@<TRIPOS>SUBSTRUCTURE
     1 UNK         1 GROUP             0       ****    0 ROOT    
