@<TRIPOS>MOLECULE
3R135
127   129    1
SMALL
USER_CHARGES


@<TRIPOS>ATOM
      1 CA        -85.3396   27.5320  -72.3346 C.3       0 UNK        -0.1998 
      2 C         -84.0866   26.6694  -72.3530 C.2       0 UNK         0.4909 
      3 O         -84.1629   25.4793  -72.0475 O.2       0 UNK        -0.5240 
      4 N         -82.9385   27.2649  -72.7092 N.am      1 UNK        -0.4739 
      5 CA        -81.6216   26.6177  -72.8108 C.3       1 UNK         0.0864 
      6 C6        -81.0972   26.1095  -71.4355 C.3       11 UNK        -0.0881 
      7 S7        -79.2803   26.2046  -71.3003 S.3       11 UNK        -0.2682 
      8 C8        -79.0398   27.8558  -70.5677 C.3       11 UNK         0.0289 
      9 C9        -77.8758   28.5576  -71.2464 C.ar      11 UNK        -0.0687 
     10 C10       -78.0820   29.2069  -72.4657 C.ar      11 UNK        -0.0823 
     11 C11       -77.0068   29.7600  -73.1719 C.ar      11 UNK        -0.0830 
     12 C12       -75.7300   29.7075  -72.6092 C.ar      11 UNK        -0.1021 
     13 C13       -75.5164   29.1038  -71.3669 C.ar      11 UNK        -0.0753 
     14 C14       -76.5928   28.5199  -70.6917 C.ar      11 UNK        -0.0933 
     15 C15       -74.1111   29.0465  -70.7896 C.3       11 UNK         0.0166 
     16 S16       -73.4245   30.7129  -70.5276 S.3       11 UNK        -0.2615 
     17 C17       -71.6437   30.3938  -70.7633 C.3       11 UNK        -0.0865 
     18 CA        -71.1287   30.8200  -72.1656 C.3       10 UNK         0.0862 
     19 C         -69.5803   30.6619  -72.2369 C.2       10 UNK         0.5551 
     20 N         -69.0393   29.7067  -72.9852 N.am      10 UNK        -0.7319 
     21 O         -68.8587   31.4239  -71.5983 O.2       10 UNK        -0.5018 
     22 N         -71.8547   30.1451  -73.2563 N.am      10 UNK        -0.4509 
     23 C         -71.8097   30.5059  -74.5462 C.2       10 UNK         0.4899 
     24 O         -71.2826   31.5489  -74.9366 O.2       10 UNK        -0.4839 
     25 CA        -72.4525   29.5499  -75.5793 C.3       9 UNK         0.0222 
     26 CB        -71.6864   29.5467  -76.9180 C.3       9 UNK        -0.1966 
     27 N         -72.6588   28.1650  -75.1247 N.am      9 UNK        -0.4218 
     28 C         -71.7400   27.3252  -74.6191 C.2       9 UNK         0.5020 
     29 O         -70.5620   27.6283  -74.4223 O.2       9 UNK        -0.5274 
     30 CA        -72.2242   25.9234  -74.2258 C.3       8 UNK         0.0270 
     31 CB        -73.0337   25.9717  -72.9196 C.3       8 UNK        -0.1976 
     32 N         -73.0109   25.2819  -75.2808 N.am      8 UNK        -0.4313 
     33 C         -72.4669   24.7027  -76.3613 C.2       8 UNK         0.5041 
     34 O         -71.2573   24.6891  -76.5950 O.2       8 UNK        -0.5577 
     35 CA        -73.4199   23.9899  -77.3350 C.3       7 UNK         0.0284 
     36 CB        -73.9085   22.6587  -76.7424 C.3       7 UNK        -0.1958 
     37 N         -74.5642   24.8135  -77.7253 N.am      7 UNK        -0.4454 
     38 C         -74.4771   25.9004  -78.5056 C.2       7 UNK         0.5089 
     39 O         -73.4261   26.3163  -78.9939 O.2       7 UNK        -0.5125 
     40 CA        -75.7860   26.6553  -78.7934 C.3       6 UNK         0.0408 
     41 CB        -76.5344   26.0149  -79.9732 C.3       6 UNK        -0.1791 
     42 N         -76.6737   26.7229  -77.6326 N.am      6 UNK        -0.4762 
     43 C         -76.3929   27.3772  -76.4963 C.2       6 UNK         0.5007 
     44 O         -75.3495   27.9987  -76.2955 O.2       6 UNK        -0.5032 
     45 CA        -77.4307   27.2469  -75.3698 C.3       5 UNK         0.0783 
     46 C46       -78.7056   28.0889  -75.6559 C.3       11 UNK        -0.0857 
     47 S47       -78.6727   29.9151  -75.4814 S.3       11 UNK        -0.2512 
     48 C48       -77.1596   30.3750  -74.5623 C.3       11 UNK         0.0225 
     49 N         -77.7644   25.8379  -75.1388 N.am      5 UNK        -0.4615 
     50 C         -76.8981   24.9071  -74.7088 C.2       4 UNK         0.5053 
     51 O         -75.7270   25.1463  -74.4208 O.2       4 UNK        -0.5105 
     52 CA        -77.3893   23.4511  -74.6446 C.3       4 UNK         0.0263 
     53 CB        -77.8488   23.0872  -73.2253 C.3       4 UNK        -0.1981 
     54 N         -78.4496   23.1625  -75.6124 N.am      4 UNK        -0.4224 
     55 C         -78.2673   23.1645  -76.9423 C.2       3 UNK         0.4895 
     56 O         -77.1784   23.3720  -77.4799 O.2       3 UNK        -0.5091 
     57 CA        -79.5087   22.9454  -77.8258 C.3       3 UNK         0.0250 
     58 CB        -79.6540   21.4586  -78.1860 C.3       3 UNK        -0.1996 
     59 N         -80.7614   23.4291  -77.2327 N.am      3 UNK        -0.4254 
     60 C         -81.0067   24.7020  -76.8901 C.2       2 UNK         0.5004 
     61 O         -80.1841   25.6078  -77.0329 O.2       2 UNK        -0.5226 
     62 CA        -82.3806   25.0330  -76.2714 C.3       2 UNK         0.0269 
     63 CB        -83.2642   23.7970  -75.9829 C.3       2 UNK        -0.1926 
     64 N         -82.2542   25.8622  -75.0645 N.am      2 UNK        -0.4687 
     65 C         -81.5751   25.5610  -73.9447 C.2       1 UNK         0.5165 
     66 O         -80.9489   24.5103  -73.7979 O.2       1 UNK        -0.5079 
     67 H67       -86.0796   27.1328  -73.0277 H         1 UNK         0.0900 
     68 H68       -85.7760   27.5377  -71.3362 H         1 UNK         0.0900 
     69 H69       -85.1306   28.5632  -72.6186 H         1 UNK         0.0900 
     70 H70       -82.9545   28.2481  -72.9448 H         1 UNK         0.2959 
     71 H71       -80.9546   27.4154  -73.1391 H         1 UNK         0.1079 
     72 H72       -81.5261   26.6958  -70.6214 H         1 UNK         0.0837 
     73 H73       -81.4175   25.0832  -71.2457 H         1 UNK         0.0837 
     74 H74       -79.9414   28.4602  -70.6782 H         1 UNK         0.0685 
     75 H75       -78.8628   27.7550  -69.4958 H         1 UNK         0.0685 
     76 H76       -79.0795   29.2316  -72.8790 H         1 UNK         0.1434 
     77 H77       -74.8915   30.1337  -73.1433 H         1 UNK         0.1329 
     78 H78       -76.4309   28.0181  -69.7475 H         1 UNK         0.1335 
     79 H79       -73.4815   28.4902  -71.4821 H         1 UNK         0.0680 
     80 H80       -74.0922   28.5010  -69.8448 H         1 UNK         0.0680 
     81 H81       -71.1151   30.9497  -69.9861 H         1 UNK         0.1032 
     82 H82       -71.4241   29.3416  -70.5722 H         1 UNK         0.1032 
     83 H83       -71.3257   31.8888  -72.2707 H         1 UNK         0.0461 
     84 H84       -68.0366   29.6189  -73.0226 H         1 UNK         0.3453 
     85 H85       -69.6217   29.0577  -73.5070 H         1 UNK         0.3453 
     86 H86       -72.2951   29.2698  -73.0244 H         1 UNK         0.2984 
     87 H87       -73.4483   29.9512  -75.7716 H         1 UNK         0.0554 
     88 H88       -71.6424   30.5459  -77.3528 H         1 UNK         0.0847 
     89 H89       -72.1724   28.8997  -77.6490 H         1 UNK         0.0847 
     90 H90       -70.6604   29.1989  -76.7927 H         1 UNK         0.0847 
     91 H91       -73.6002   27.8150  -75.2786 H         1 UNK         0.3141 
     92 H92       -71.3401   25.3098  -74.0380 H         1 UNK         0.0743 
     93 H93       -73.9278   26.5894  -73.0148 H         1 UNK         0.0784 
     94 H94       -73.3527   24.9744  -72.6162 H         1 UNK         0.0784 
     95 H95       -72.4336   26.3789  -72.1051 H         1 UNK         0.0784 
     96 H96       -74.0185   25.2355  -75.1351 H         1 UNK         0.3213 
     97 H97       -72.8553   23.7611  -78.2418 H         1 UNK         0.0855 
     98 H98       -74.4459   22.8066  -75.8067 H         1 UNK         0.0814 
     99 H99       -73.0677   21.9969  -76.5310 H         1 UNK         0.0814 
    100 H100      -74.5700   22.1334  -77.4316 H         1 UNK         0.0814 
    101 H101      -75.4836   24.5012  -77.4288 H         1 UNK         0.3105 
    102 H102      -75.5244   27.6785  -79.0713 H         1 UNK         0.0547 
    103 H103      -77.4233   26.5874  -80.2380 H         1 UNK         0.0837 
    104 H104      -76.8466   24.9940  -79.7492 H         1 UNK         0.0837 
    105 H105      -75.9005   25.9740  -80.8600 H         1 UNK         0.0837 
    106 H106      -77.5406   26.2052  -77.6874 H         1 UNK         0.3020 
    107 H107      -76.9538   27.5805  -74.4519 H         1 UNK         0.1245 
    108 H108      -79.4999   27.7517  -74.9908 H         1 UNK         0.0781 
    109 H109      -79.0791   27.8806  -76.6594 H         1 UNK         0.0781 
    110 H110      -77.1543   31.4599  -74.4505 H         1 UNK         0.0836 
    111 H111      -76.2912   30.1366  -75.1764 H         1 UNK         0.0836 
    112 H112      -78.6921   25.5448  -75.4194 H         1 UNK         0.3022 
    113 H113      -76.5423   22.8084  -74.8876 H         1 UNK         0.0747 
    114 H114      -78.1475   22.0411  -73.1585 H         1 UNK         0.0793 
    115 H115      -77.0432   23.2415  -72.5062 H         1 UNK         0.0793 
    116 H116      -78.6892   23.6985  -72.9003 H         1 UNK         0.0793 
    117 H117      -79.3826   23.0324  -75.2446 H         1 UNK         0.3047 
    118 H118      -79.3468   23.5060  -78.7490 H         1 UNK         0.0822 
    119 H119      -80.4665   21.2986  -78.8951 H         1 UNK         0.0807 
    120 H120      -79.8497   20.8460  -77.3049 H         1 UNK         0.0807 
    121 H121      -78.7425   21.0792  -78.6506 H         1 UNK         0.0807 
    122 H122      -81.4842   22.7421  -77.0734 H         1 UNK         0.2946 
    123 H123      -82.8980   25.6431  -77.0136 H         1 UNK         0.1144 
    124 H124      -82.7934   23.1087  -75.2796 H         1 UNK         0.0793 
    125 H125      -83.4885   23.2442  -76.8960 H         1 UNK         0.0793 
    126 H126      -84.2210   24.0954  -75.5540 H         1 UNK         0.0793 
    127 H127      -82.7232   26.7564  -75.1001 H         1 UNK         0.2896 
@<TRIPOS>BOND
     1    1    2 1    
     2    1   67 1    
     3    1   68 1    
     4    1   69 1    
     5    2    3 2    
     6    2    4 am   BACKBONE|DICT|INTERRES
     7    4    5 1    
     8    4   70 1    
     9    5    6 1    
    10    5   65 1    
    11    5   71 1    
    12    6    7 1    
    13    6   72 1    
    14    6   73 1    
    15    7    8 1    
    16    8    9 1    
    17    8   74 1    
    18    8   75 1    
    19    9   10 ar   
    20    9   14 ar   
    21   10   11 ar   
    22   10   76 1    
    23   11   12 ar   
    24   11   48 1    
    25   12   13 ar   
    26   12   77 1    
    27   13   14 ar   
    28   13   15 1    
    29   14   78 1    
    30   15   16 1    
    31   15   79 1    
    32   15   80 1    
    33   16   17 1    
    34   17   18 1    
    35   17   81 1    
    36   17   82 1    
    37   18   19 1    
    38   18   22 1    
    39   18   83 1    
    40   19   20 am   BACKBONE|DICT|INTERRES
    41   19   21 2    
    42   20   84 1    
    43   20   85 1    
    44   22   23 am   BACKBONE|DICT|INTERRES
    45   22   86 1    
    46   23   24 2    
    47   23   25 1    
    48   25   26 1    
    49   25   27 1    
    50   25   87 1    
    51   26   88 1    
    52   26   89 1    
    53   26   90 1    
    54   27   28 am   BACKBONE|DICT|INTERRES
    55   27   91 1    
    56   28   29 2    
    57   28   30 1    
    58   30   31 1    
    59   30   32 1    
    60   30   92 1    
    61   31   93 1    
    62   31   94 1    
    63   31   95 1    
    64   32   33 am   BACKBONE|DICT|INTERRES
    65   32   96 1    
    66   33   34 2    
    67   33   35 1    
    68   35   36 1    
    69   35   37 1    
    70   35   97 1    
    71   36   98 1    
    72   36   99 1    
    73   36  100 1    
    74   37   38 am   BACKBONE|DICT|INTERRES
    75   37  101 1    
    76   38   39 2    
    77   38   40 1    
    78   40   41 1    
    79   40   42 1    
    80   40  102 1    
    81   41  103 1    
    82   41  104 1    
    83   41  105 1    
    84   42   43 am   BACKBONE|DICT|INTERRES
    85   42  106 1    
    86   43   44 2    
    87   43   45 1    
    88   45   46 1    
    89   45   49 1    
    90   45  107 1    
    91   46   47 1    
    92   46  108 1    
    93   46  109 1    
    94   47   48 1    
    95   48  110 1    
    96   48  111 1    
    97   49   50 am   BACKBONE|DICT|INTERRES
    98   49  112 1    
    99   50   51 2    
   100   50   52 1    
   101   52   53 1    
   102   52   54 1    
   103   52  113 1    
   104   53  114 1    
   105   53  115 1    
   106   53  116 1    
   107   54   55 am   BACKBONE|DICT|INTERRES
   108   54  117 1    
   109   55   56 2    
   110   55   57 1    
   111   57   58 1    
   112   57   59 1    
   113   57  118 1    
   114   58  119 1    
   115   58  120 1    
   116   58  121 1    
   117   59   60 am   BACKBONE|DICT|INTERRES
   118   59  122 1    
   119   60   61 2    
   120   60   62 1    
   121   62   63 1    
   122   62   64 1    
   123   62  123 1    
   124   63  124 1    
   125   63  125 1    
   126   63  126 1    
   127   64   65 am   BACKBONE|DICT|INTERRES
   128   64  127 1    
   129   65   66 2    
@<TRIPOS>SUBSTRUCTURE
     1 UNK         1 GROUP             0       ****    0 ROOT    
