@<TRIPOS>MOLECULE
3R135
127   129    1
SMALL
USER_CHARGES


@<TRIPOS>ATOM
      1 CA        -82.5987   23.1714  -69.4697 C.3       0 UNK        -0.1998 
      2 C         -81.7015   23.6253  -70.6114 C.2       0 UNK         0.4909 
      3 O         -81.0180   22.7979  -71.2134 O.2       0 UNK        -0.5240 
      4 N         -81.7122   24.9318  -70.9152 N.am      1 UNK        -0.4739 
      5 CA        -80.9109   25.6025  -71.9547 C.3       1 UNK         0.0864 
      6 C6        -79.3779   25.5274  -71.6941 C.3       11 UNK        -0.0881 
      7 S7        -78.9084   26.5165  -70.2323 S.3       11 UNK        -0.2682 
      8 C8        -77.3124   27.2405  -70.7546 C.3       11 UNK         0.0289 
      9 C9        -77.3822   28.4305  -71.7177 C.ar      11 UNK        -0.0687 
     10 C10       -78.5059   28.7134  -72.5044 C.ar      11 UNK        -0.0823 
     11 C11       -78.4878   29.7594  -73.4285 C.ar      11 UNK        -0.0830 
     12 C12       -77.3503   30.5601  -73.5390 C.ar      11 UNK        -0.1021 
     13 C13       -76.2245   30.3151  -72.7499 C.ar      11 UNK        -0.0753 
     14 C14       -76.2498   29.2423  -71.8477 C.ar      11 UNK        -0.0933 
     15 C15       -75.0040   31.2127  -72.9500 C.3       11 UNK         0.0166 
     16 S16       -73.7484   31.1546  -71.6255 S.3       11 UNK        -0.2615 
     17 C17       -72.5594   32.3960  -72.2498 C.3       11 UNK        -0.0865 
     18 CA        -71.3036   31.7850  -72.9271 C.3       10 UNK         0.0862 
     19 C         -70.2753   31.2348  -71.8937 C.2       10 UNK         0.5551 
     20 N         -69.8704   29.9715  -71.9488 N.am      10 UNK        -0.7319 
     21 O         -69.8190   31.9812  -71.0308 O.2       10 UNK        -0.5018 
     22 N         -71.6750   30.8444  -73.9943 N.am      10 UNK        -0.4509 
     23 C         -70.9353   30.5629  -75.0720 C.2       10 UNK         0.4899 
     24 O         -69.8872   31.1480  -75.3502 O.2       10 UNK        -0.4839 
     25 CA        -71.4585   29.4372  -75.9908 C.3       9 UNK         0.0222 
     26 CB        -70.3363   28.8147  -76.8474 C.3       9 UNK        -0.1966 
     27 N         -72.2056   28.3774  -75.2954 N.am      9 UNK        -0.4218 
     28 C         -71.7755   27.6226  -74.2701 C.2       9 UNK         0.5020 
     29 O         -70.7067   27.7959  -73.6833 O.2       9 UNK        -0.5274 
     30 CA        -72.6887   26.4660  -73.8342 C.3       8 UNK         0.0270 
     31 CB        -73.8913   26.9869  -73.0315 C.3       8 UNK        -0.1976 
     32 N         -73.1588   25.6735  -74.9708 N.am      8 UNK        -0.4313 
     33 C         -72.3765   24.9377  -75.7748 C.2       8 UNK         0.5041 
     34 O         -71.1705   24.7644  -75.5951 O.2       8 UNK        -0.5577 
     35 CA        -73.0508   24.3062  -77.0025 C.3       7 UNK         0.0284 
     36 CB        -73.7619   22.9933  -76.6326 C.3       7 UNK        -0.1958 
     37 N         -73.9978   25.2358  -77.6219 N.am      7 UNK        -0.4454 
     38 C         -73.6412   26.2467  -78.4272 C.2       7 UNK         0.5089 
     39 O         -72.4883   26.4396  -78.8121 O.2       7 UNK        -0.5125 
     40 CA        -74.7508   27.2082  -78.8907 C.3       6 UNK         0.0408 
     41 CB        -75.2267   26.8328  -80.3031 C.3       6 UNK        -0.1791 
     42 N         -75.9060   27.2496  -77.9905 N.am      6 UNK        -0.4762 
     43 C         -75.9160   27.8299  -76.7812 C.2       6 UNK         0.5007 
     44 O         -74.9414   28.3965  -76.2836 O.2       6 UNK        -0.5032 
     45 CA        -77.2267   27.6926  -75.9777 C.3       5 UNK         0.0783 
     46 C46       -78.2638   28.7411  -76.4620 C.3       11 UNK        -0.0857 
     47 S47       -79.8536   28.6535  -75.5665 S.3       11 UNK        -0.2512 
     48 C48       -79.6818   29.9917  -74.3412 C.3       11 UNK         0.0225 
     49 N         -77.7592   26.3217  -76.0099 N.am      5 UNK        -0.4615 
     50 C         -77.0972   25.2212  -75.6237 C.2       4 UNK         0.5053 
     51 O         -75.9415   25.2476  -75.2029 O.2       4 UNK        -0.5105 
     52 CA        -77.7990   23.8602  -75.7576 C.3       4 UNK         0.0263 
     53 CB        -77.8870   23.1461  -74.3994 C.3       4 UNK        -0.1981 
     54 N         -79.1443   23.9777  -76.3240 N.am      4 UNK        -0.4224 
     55 C         -79.5084   23.5550  -77.5426 C.2       3 UNK         0.4895 
     56 O         -78.7258   23.0316  -78.3372 O.2       3 UNK        -0.5091 
     57 CA        -80.9738   23.7733  -77.9796 C.3       3 UNK         0.0250 
     58 CB        -81.5485   22.5461  -78.7197 C.3       3 UNK        -0.1996 
     59 N         -81.8805   24.2185  -76.9112 N.am      3 UNK        -0.4254 
     60 C         -82.2648   23.5414  -75.8182 C.2       2 UNK         0.5004 
     61 O         -81.9194   22.3899  -75.5478 O.2       2 UNK        -0.5226 
     62 CA        -83.1698   24.3134  -74.8404 C.3       2 UNK         0.0269 
     63 CB        -84.4603   23.5279  -74.5498 C.3       2 UNK        -0.1926 
     64 N         -82.5145   24.6422  -73.5690 N.am      2 UNK        -0.4687 
     65 C         -81.3121   25.2165  -73.3996 C.2       1 UNK         0.5165 
     66 O         -80.5589   25.4974  -74.3330 O.2       1 UNK        -0.5079 
     67 H67       -83.1520   24.0008  -69.0296 H         1 UNK         0.0900 
     68 H68       -82.0002   22.7097  -68.6848 H         1 UNK         0.0900 
     69 H69       -83.3181   22.4352  -69.8273 H         1 UNK         0.0900 
     70 H70       -82.3024   25.5494  -70.3743 H         1 UNK         0.2959 
     71 H71       -81.1949   26.6541  -71.8939 H         1 UNK         0.1079 
     72 H72       -78.8071   25.8857  -72.5523 H         1 UNK         0.0837 
     73 H73       -79.0528   24.4987  -71.5373 H         1 UNK         0.0837 
     74 H74       -76.7896   27.5536  -69.8496 H         1 UNK         0.0685 
     75 H75       -76.6996   26.4584  -71.2051 H         1 UNK         0.0685 
     76 H76       -79.3952   28.1082  -72.4401 H         1 UNK         0.1434 
     77 H77       -77.3328   31.3682  -74.2579 H         1 UNK         0.1329 
     78 H78       -75.3800   29.0179  -71.2477 H         1 UNK         0.1335 
     79 H79       -75.3416   32.2457  -73.0493 H         1 UNK         0.0680 
     80 H80       -74.5364   30.9446  -73.8981 H         1 UNK         0.0680 
     81 H81       -73.0645   33.0522  -72.9600 H         1 UNK         0.1032 
     82 H82       -72.2742   33.0484  -71.4222 H         1 UNK         0.1032 
     83 H83       -70.7864   32.6189  -73.4057 H         1 UNK         0.0461 
     84 H84       -69.1991   29.6437  -71.2734 H         1 UNK         0.3453 
     85 H85       -70.2240   29.3310  -72.6539 H         1 UNK         0.3453 
     86 H86       -72.5000   30.2911  -73.8186 H         1 UNK         0.2984 
     87 H87       -72.1704   29.9081  -76.6700 H         1 UNK         0.0554 
     88 H88       -70.7241   28.0388  -77.5069 H         1 UNK         0.0847 
     89 H89       -69.5589   28.3669  -76.2273 H         1 UNK         0.0847 
     90 H90       -69.8591   29.5645  -77.4796 H         1 UNK         0.0847 
     91 H91       -73.1394   28.1989  -75.6600 H         1 UNK         0.3141 
     92 H92       -72.1066   25.8069  -73.1867 H         1 UNK         0.0743 
     93 H93       -74.5371   27.6254  -73.6353 H         1 UNK         0.0784 
     94 H94       -74.4996   26.1656  -72.6525 H         1 UNK         0.0784 
     95 H95       -73.5614   27.5719  -72.1720 H         1 UNK         0.0784 
     96 H96       -74.1620   25.6796  -75.1476 H         1 UNK         0.3213 
     97 H97       -72.2694   24.0688  -77.7283 H         1 UNK         0.0855 
     98 H98       -73.0493   22.2683  -76.2374 H         1 UNK         0.0814 
     99 H99       -74.2356   22.5391  -77.5030 H         1 UNK         0.0814 
    100 H100      -74.5274   23.1386  -75.8707 H         1 UNK         0.0814 
    101 H101      -74.9599   25.1773  -77.3215 H         1 UNK         0.3105 
    102 H102      -74.3176   28.2099  -78.9333 H         1 UNK         0.0547 
    103 H103      -74.3921   26.8226  -81.0057 H         1 UNK         0.0837 
    104 H104      -75.6838   25.8428  -80.3272 H         1 UNK         0.0837 
    105 H105      -75.9554   27.5501  -80.6810 H         1 UNK         0.0837 
    106 H106      -76.7488   26.7931  -78.3095 H         1 UNK         0.3020 
    107 H107      -76.9767   27.9074  -74.9368 H         1 UNK         0.1245 
    108 H108      -78.4820   28.6000  -77.5222 H         1 UNK         0.0781 
    109 H109      -77.8596   29.7513  -76.3734 H         1 UNK         0.0781 
    110 H110      -80.5917   30.0449  -73.7419 H         1 UNK         0.0836 
    111 H111      -79.5999   30.9480  -74.8603 H         1 UNK         0.0836 
    112 H112      -78.7229   26.2297  -76.2954 H         1 UNK         0.3022 
    113 H113      -77.1648   23.2534  -76.4068 H         1 UNK         0.0747 
    114 H114      -76.9048   23.0545  -73.9336 H         1 UNK         0.0793 
    115 H115      -78.5320   23.6811  -73.7053 H         1 UNK         0.0793 
    116 H116      -78.2874   22.1384  -74.5115 H         1 UNK         0.0793 
    117 H117      -79.8372   24.4197  -75.7234 H         1 UNK         0.3047 
    118 H118      -80.9412   24.5954  -78.6962 H         1 UNK         0.0822 
    119 H119      -81.5432   21.6543  -78.0925 H         1 UNK         0.0807 
    120 H120      -80.9641   22.3161  -79.6114 H         1 UNK         0.0807 
    121 H121      -82.5739   22.7222  -79.0449 H         1 UNK         0.0807 
    122 H122      -82.2036   25.1720  -77.0053 H         1 UNK         0.2946 
    123 H123      -83.4551   25.2596  -75.3051 H         1 UNK         0.1144 
    124 H124      -84.9768   23.2689  -75.4752 H         1 UNK         0.0793 
    125 H125      -84.2543   22.5966  -74.0203 H         1 UNK         0.0793 
    126 H126      -85.1551   24.1115  -73.9456 H         1 UNK         0.0793 
    127 H127      -83.0408   24.4356  -72.7329 H         1 UNK         0.2896 
@<TRIPOS>BOND
     1    1    2 1    
     2    1   67 1    
     3    1   68 1    
     4    1   69 1    
     5    2    3 2    
     6    2    4 am   BACKBONE|DICT|INTERRES
     7    4    5 1    
     8    4   70 1    
     9    5    6 1    
    10    5   65 1    
    11    5   71 1    
    12    6    7 1    
    13    6   72 1    
    14    6   73 1    
    15    7    8 1    
    16    8    9 1    
    17    8   74 1    
    18    8   75 1    
    19    9   10 ar   
    20    9   14 ar   
    21   10   11 ar   
    22   10   76 1    
    23   11   12 ar   
    24   11   48 1    
    25   12   13 ar   
    26   12   77 1    
    27   13   14 ar   
    28   13   15 1    
    29   14   78 1    
    30   15   16 1    
    31   15   79 1    
    32   15   80 1    
    33   16   17 1    
    34   17   18 1    
    35   17   81 1    
    36   17   82 1    
    37   18   19 1    
    38   18   22 1    
    39   18   83 1    
    40   19   20 am   BACKBONE|DICT|INTERRES
    41   19   21 2    
    42   20   84 1    
    43   20   85 1    
    44   22   23 am   BACKBONE|DICT|INTERRES
    45   22   86 1    
    46   23   24 2    
    47   23   25 1    
    48   25   26 1    
    49   25   27 1    
    50   25   87 1    
    51   26   88 1    
    52   26   89 1    
    53   26   90 1    
    54   27   28 am   BACKBONE|DICT|INTERRES
    55   27   91 1    
    56   28   29 2    
    57   28   30 1    
    58   30   31 1    
    59   30   32 1    
    60   30   92 1    
    61   31   93 1    
    62   31   94 1    
    63   31   95 1    
    64   32   33 am   BACKBONE|DICT|INTERRES
    65   32   96 1    
    66   33   34 2    
    67   33   35 1    
    68   35   36 1    
    69   35   37 1    
    70   35   97 1    
    71   36   98 1    
    72   36   99 1    
    73   36  100 1    
    74   37   38 am   BACKBONE|DICT|INTERRES
    75   37  101 1    
    76   38   39 2    
    77   38   40 1    
    78   40   41 1    
    79   40   42 1    
    80   40  102 1    
    81   41  103 1    
    82   41  104 1    
    83   41  105 1    
    84   42   43 am   BACKBONE|DICT|INTERRES
    85   42  106 1    
    86   43   44 2    
    87   43   45 1    
    88   45   46 1    
    89   45   49 1    
    90   45  107 1    
    91   46   47 1    
    92   46  108 1    
    93   46  109 1    
    94   47   48 1    
    95   48  110 1    
    96   48  111 1    
    97   49   50 am   BACKBONE|DICT|INTERRES
    98   49  112 1    
    99   50   51 2    
   100   50   52 1    
   101   52   53 1    
   102   52   54 1    
   103   52  113 1    
   104   53  114 1    
   105   53  115 1    
   106   53  116 1    
   107   54   55 am   BACKBONE|DICT|INTERRES
   108   54  117 1    
   109   55   56 2    
   110   55   57 1    
   111   57   58 1    
   112   57   59 1    
   113   57  118 1    
   114   58  119 1    
   115   58  120 1    
   116   58  121 1    
   117   59   60 am   BACKBONE|DICT|INTERRES
   118   59  122 1    
   119   60   61 2    
   120   60   62 1    
   121   62   63 1    
   122   62   64 1    
   123   62  123 1    
   124   63  124 1    
   125   63  125 1    
   126   63  126 1    
   127   64   65 am   BACKBONE|DICT|INTERRES
   128   64  127 1    
   129   65   66 2    
@<TRIPOS>SUBSTRUCTURE
     1 UNK         1 GROUP             0       ****    0 ROOT    
