@<TRIPOS>MOLECULE
3R135
127   129    1
SMALL
USER_CHARGES


@<TRIPOS>ATOM
      1 CA        -84.8609   26.9327  -70.9449 C.3       0 UNK        -0.1998 
      2 C         -83.5473   27.0476  -71.7033 C.2       0 UNK         0.4909 
      3 O         -83.3370   28.0272  -72.4186 O.2       0 UNK        -0.5240 
      4 N         -82.6610   26.0531  -71.5538 N.am      1 UNK        -0.4739 
      5 CA        -81.3542   25.9912  -72.2237 C.3       1 UNK         0.0864 
      6 C6        -80.3797   25.0666  -71.4468 C.3       11 UNK        -0.0881 
      7 S7        -78.6230   25.4871  -71.7006 S.3       11 UNK        -0.2682 
      8 C8        -78.4181   26.9394  -70.6221 C.3       11 UNK         0.0289 
      9 C9        -77.6459   28.0252  -71.3532 C.ar      11 UNK        -0.0687 
     10 C10       -78.2816   28.7753  -72.3454 C.ar      11 UNK        -0.0823 
     11 C11       -77.5726   29.7269  -73.0802 C.ar      11 UNK        -0.0830 
     12 C12       -76.2222   29.9466  -72.7983 C.ar      11 UNK        -0.1021 
     13 C13       -75.5792   29.2234  -71.7879 C.ar      11 UNK        -0.0753 
     14 C14       -76.2962   28.2593  -71.0707 C.ar      11 UNK        -0.0933 
     15 C15       -74.0958   29.4356  -71.5193 C.3       11 UNK         0.0166 
     16 S16       -73.6843   31.1778  -71.1961 S.3       11 UNK        -0.2615 
     17 C17       -71.8622   31.1318  -71.2857 C.3       11 UNK        -0.0865 
     18 CA        -71.3404   31.4715  -72.7070 C.3       10 UNK         0.0862 
     19 C         -69.8396   31.8642  -72.6720 C.2       10 UNK         0.5551 
     20 N         -69.5400   33.1440  -72.4987 N.am      10 UNK        -0.7319 
     21 O         -68.9483   31.0212  -72.7586 O.2       10 UNK        -0.5018 
     22 N         -71.5699   30.3601  -73.6395 N.am      10 UNK        -0.4509 
     23 C         -71.7184   30.4788  -74.9610 C.2       10 UNK         0.4899 
     24 O         -71.7868   31.5641  -75.5394 O.2       10 UNK        -0.4839 
     25 CA        -71.8085   29.1891  -75.8032 C.3       9 UNK         0.0222 
     26 CB        -70.4476   28.8694  -76.4512 C.3       9 UNK        -0.1966 
     27 N         -72.3602   27.9949  -75.1417 N.am      9 UNK        -0.4218 
     28 C         -71.8648   27.2822  -74.1177 C.2       9 UNK         0.5020 
     29 O         -70.8889   27.6245  -73.4497 O.2       9 UNK        -0.5274 
     30 CA        -72.5711   25.9583  -73.7761 C.3       8 UNK         0.0270 
     31 CB        -73.7563   26.1859  -72.8259 C.3       8 UNK        -0.1976 
     32 N         -73.0351   25.2301  -74.9573 N.am      8 UNK        -0.4313 
     33 C         -72.2407   24.6436  -75.8638 C.2       8 UNK         0.5041 
     34 O         -71.0105   24.6448  -75.8058 O.2       8 UNK        -0.5577 
     35 CA        -72.9394   23.9322  -77.0329 C.3       7 UNK         0.0284 
     36 CB        -73.4476   22.5442  -76.6083 C.3       7 UNK        -0.1958 
     37 N         -74.0515   24.7268  -77.5545 N.am      7 UNK        -0.4454 
     38 C         -73.9110   25.7507  -78.4069 C.2       7 UNK         0.5089 
     39 O         -72.8370   26.0845  -78.9078 O.2       7 UNK        -0.5125 
     40 CA        -75.1813   26.5447  -78.7597 C.3       6 UNK         0.0408 
     41 CB        -75.8250   25.9892  -80.0394 C.3       6 UNK        -0.1791 
     42 N         -76.1745   26.5646  -77.6818 N.am      6 UNK        -0.4762 
     43 C         -76.0094   27.2128  -76.5175 C.2       6 UNK         0.5007 
     44 O         -74.9825   27.8245  -76.2217 O.2       6 UNK        -0.5032 
     45 CA        -77.1592   27.1143  -75.4877 C.3       5 UNK         0.0783 
     46 C46       -78.2920   28.1323  -75.7943 C.3       11 UNK        -0.0857 
     47 S47       -77.7565   29.8819  -75.8387 S.3       11 UNK        -0.2512 
     48 C48       -78.2606   30.4922  -74.1993 C.3       11 UNK         0.0225 
     49 N         -77.6971   25.7510  -75.3731 N.am      5 UNK        -0.4615 
     50 C         -76.9773   24.6342  -75.1831 C.2       4 UNK         0.5053 
     51 O         -75.7644   24.6336  -74.9792 O.2       4 UNK        -0.5105 
     52 CA        -77.6921   23.2787  -75.3232 C.3       4 UNK         0.0263 
     53 CB        -78.0643   22.6978  -73.9521 C.3       4 UNK        -0.1981 
     54 N         -78.8825   23.3017  -76.1742 N.am      4 UNK        -0.4224 
     55 C         -78.9372   23.6510  -77.4654 C.2       3 UNK         0.4895 
     56 O         -77.9587   24.0244  -78.1131 O.2       3 UNK        -0.5091 
     57 CA        -80.3197   23.6123  -78.1450 C.3       3 UNK         0.0250 
     58 CB        -80.6676   22.1870  -78.6168 C.3       3 UNK        -0.1996 
     59 N         -81.4059   24.2038  -77.3449 N.am      3 UNK        -0.4254 
     60 C         -81.9154   23.7844  -76.1768 C.2       2 UNK         0.5004 
     61 O         -81.5756   22.7485  -75.5995 O.2       2 UNK        -0.5226 
     62 CA        -82.9523   24.7054  -75.5151 C.3       2 UNK         0.0269 
     63 CB        -84.3484   24.0627  -75.5462 C.3       2 UNK        -0.1926 
     64 N         -82.6017   25.0338  -74.1294 N.am      2 UNK        -0.4687 
     65 C         -81.4680   25.6315  -73.7258 C.2       1 UNK         0.5165 
     66 O         -80.5540   25.9365  -74.4941 O.2       1 UNK        -0.5079 
     67 H67       -84.9820   27.7829  -70.2742 H         1 UNK         0.0900 
     68 H68       -85.6977   26.9273  -71.6429 H         1 UNK         0.0900 
     69 H69       -84.9103   26.0215  -70.3490 H         1 UNK         0.0900 
     70 H70       -82.8868   25.2745  -70.9501 H         1 UNK         0.2959 
     71 H71       -80.9479   27.0031  -72.1950 H         1 UNK         0.1079 
     72 H72       -80.5705   25.1265  -70.3737 H         1 UNK         0.0837 
     73 H73       -80.5374   24.0198  -71.7130 H         1 UNK         0.0837 
     74 H74       -77.9016   26.6383  -69.7096 H         1 UNK         0.0685 
     75 H75       -79.3877   27.3318  -70.3125 H         1 UNK         0.0685 
     76 H76       -79.3220   28.5919  -72.5716 H         1 UNK         0.1434 
     77 H77       -75.6658   30.6717  -73.3769 H         1 UNK         0.1329 
     78 H78       -75.7994   27.6738  -70.3092 H         1 UNK         0.1335 
     79 H79       -73.5460   29.0900  -72.3923 H         1 UNK         0.0680 
     80 H80       -73.7595   28.8325  -70.6746 H         1 UNK         0.0680 
     81 H81       -71.4881   30.1631  -70.9486 H         1 UNK         0.1032 
     82 H82       -71.4967   31.8607  -70.5595 H         1 UNK         0.1032 
     83 H83       -71.8955   32.3404  -73.0679 H         1 UNK         0.0461 
     84 H84       -68.5711   33.4198  -72.4576 H         1 UNK         0.3453 
     85 H85       -70.2629   33.8423  -72.4169 H         1 UNK         0.3453 
     86 H86       -71.3898   29.4258  -73.2841 H         1 UNK         0.2984 
     87 H87       -72.5084   29.4075  -76.6114 H         1 UNK         0.0554 
     88 H88       -70.0847   29.7156  -77.0362 H         1 UNK         0.0847 
     89 H89       -70.5216   28.0163  -77.1262 H         1 UNK         0.0847 
     90 H90       -69.6862   28.6419  -75.7043 H         1 UNK         0.0847 
     91 H91       -73.2414   27.6799  -75.5441 H         1 UNK         0.3141 
     92 H92       -71.8462   25.3230  -73.2628 H         1 UNK         0.0743 
     93 H93       -73.4248   26.6436  -71.8940 H         1 UNK         0.0784 
     94 H94       -74.5117   26.8354  -73.2702 H         1 UNK         0.0784 
     95 H95       -74.2423   25.2456  -72.5645 H         1 UNK         0.0784 
     96 H96       -74.0441   25.1156  -75.0514 H         1 UNK         0.3213 
     97 H97       -72.2030   23.7907  -77.8274 H         1 UNK         0.0855 
     98 H98       -74.1840   22.6044  -75.8063 H         1 UNK         0.0814 
     99 H99       -72.6255   21.9247  -76.2474 H         1 UNK         0.0814 
    100 H100      -73.9063   22.0173  -77.4451 H         1 UNK         0.0814 
    101 H101      -74.9666   24.5535  -77.1610 H         1 UNK         0.3105 
    102 H102      -74.8799   27.5763  -78.9540 H         1 UNK         0.0547 
    103 H103      -76.1440   24.9537  -79.9153 H         1 UNK         0.0837 
    104 H104      -75.1204   26.0141  -80.8718 H         1 UNK         0.0837 
    105 H105      -76.6949   26.5757  -80.3349 H         1 UNK         0.0837 
    106 H106      -77.0104   26.0084  -77.8215 H         1 UNK         0.3020 
    107 H107      -76.7324   27.3595  -74.5129 H         1 UNK         0.1245 
    108 H108      -79.0887   28.0353  -75.0568 H         1 UNK         0.0781 
    109 H109      -78.7553   27.9002  -76.7549 H         1 UNK         0.0781 
    110 H110      -79.3461   30.4282  -74.1077 H         1 UNK         0.0836 
    111 H111      -78.0099   31.5512  -74.1221 H         1 UNK         0.0836 
    112 H112      -78.7059   25.6640  -75.4298 H         1 UNK         0.3022 
    113 H113      -76.9770   22.5996  -75.7917 H         1 UNK         0.0747 
    114 H114      -78.9061   23.2297  -73.5102 H         1 UNK         0.0793 
    115 H115      -78.3429   21.6471  -74.0323 H         1 UNK         0.0793 
    116 H116      -77.2286   22.7603  -73.2532 H         1 UNK         0.0793 
    117 H117      -79.7611   23.0192  -75.7445 H         1 UNK         0.3047 
    118 H118      -80.2403   24.2370  -79.0363 H         1 UNK         0.0822 
    119 H119      -81.6131   22.1689  -79.1588 H         1 UNK         0.0807 
    120 H120      -80.7443   21.4852  -77.7859 H         1 UNK         0.0807 
    121 H121      -79.9004   21.8044  -79.2913 H         1 UNK         0.0807 
    122 H122      -81.7492   25.0837  -77.7054 H         1 UNK         0.2946 
    123 H123      -82.9947   25.6460  -76.0687 H         1 UNK         0.1144 
    124 H124      -85.1049   24.7329  -75.1373 H         1 UNK         0.0793 
    125 H125      -84.3771   23.1339  -74.9746 H         1 UNK         0.0793 
    126 H126      -84.6463   23.8251  -76.5684 H         1 UNK         0.0793 
    127 H127      -83.2905   24.8135  -73.4257 H         1 UNK         0.2896 
@<TRIPOS>BOND
     1    1    2 1    
     2    1   67 1    
     3    1   68 1    
     4    1   69 1    
     5    2    3 2    
     6    2    4 am   BACKBONE|DICT|INTERRES
     7    4    5 1    
     8    4   70 1    
     9    5    6 1    
    10    5   65 1    
    11    5   71 1    
    12    6    7 1    
    13    6   72 1    
    14    6   73 1    
    15    7    8 1    
    16    8    9 1    
    17    8   74 1    
    18    8   75 1    
    19    9   10 ar   
    20    9   14 ar   
    21   10   11 ar   
    22   10   76 1    
    23   11   12 ar   
    24   11   48 1    
    25   12   13 ar   
    26   12   77 1    
    27   13   14 ar   
    28   13   15 1    
    29   14   78 1    
    30   15   16 1    
    31   15   79 1    
    32   15   80 1    
    33   16   17 1    
    34   17   18 1    
    35   17   81 1    
    36   17   82 1    
    37   18   19 1    
    38   18   22 1    
    39   18   83 1    
    40   19   20 am   BACKBONE|DICT|INTERRES
    41   19   21 2    
    42   20   84 1    
    43   20   85 1    
    44   22   23 am   BACKBONE|DICT|INTERRES
    45   22   86 1    
    46   23   24 2    
    47   23   25 1    
    48   25   26 1    
    49   25   27 1    
    50   25   87 1    
    51   26   88 1    
    52   26   89 1    
    53   26   90 1    
    54   27   28 am   BACKBONE|DICT|INTERRES
    55   27   91 1    
    56   28   29 2    
    57   28   30 1    
    58   30   31 1    
    59   30   32 1    
    60   30   92 1    
    61   31   93 1    
    62   31   94 1    
    63   31   95 1    
    64   32   33 am   BACKBONE|DICT|INTERRES
    65   32   96 1    
    66   33   34 2    
    67   33   35 1    
    68   35   36 1    
    69   35   37 1    
    70   35   97 1    
    71   36   98 1    
    72   36   99 1    
    73   36  100 1    
    74   37   38 am   BACKBONE|DICT|INTERRES
    75   37  101 1    
    76   38   39 2    
    77   38   40 1    
    78   40   41 1    
    79   40   42 1    
    80   40  102 1    
    81   41  103 1    
    82   41  104 1    
    83   41  105 1    
    84   42   43 am   BACKBONE|DICT|INTERRES
    85   42  106 1    
    86   43   44 2    
    87   43   45 1    
    88   45   46 1    
    89   45   49 1    
    90   45  107 1    
    91   46   47 1    
    92   46  108 1    
    93   46  109 1    
    94   47   48 1    
    95   48  110 1    
    96   48  111 1    
    97   49   50 am   BACKBONE|DICT|INTERRES
    98   49  112 1    
    99   50   51 2    
   100   50   52 1    
   101   52   53 1    
   102   52   54 1    
   103   52  113 1    
   104   53  114 1    
   105   53  115 1    
   106   53  116 1    
   107   54   55 am   BACKBONE|DICT|INTERRES
   108   54  117 1    
   109   55   56 2    
   110   55   57 1    
   111   57   58 1    
   112   57   59 1    
   113   57  118 1    
   114   58  119 1    
   115   58  120 1    
   116   58  121 1    
   117   59   60 am   BACKBONE|DICT|INTERRES
   118   59  122 1    
   119   60   61 2    
   120   60   62 1    
   121   62   63 1    
   122   62   64 1    
   123   62  123 1    
   124   63  124 1    
   125   63  125 1    
   126   63  126 1    
   127   64   65 am   BACKBONE|DICT|INTERRES
   128   64  127 1    
   129   65   66 2    
@<TRIPOS>SUBSTRUCTURE
     1 UNK         1 GROUP             0       ****    0 ROOT    
