@<TRIPOS>MOLECULE
3R135
127   129    1
SMALL
USER_CHARGES


@<TRIPOS>ATOM
      1 CA        -81.8692   28.0945  -70.7846 C.3       0 UNK        -0.1998 
      2 C         -82.5159   26.7116  -70.7514 C.2       0 UNK         0.4909 
      3 O         -83.5114   26.5291  -70.0528 O.2       0 UNK        -0.5240 
      4 N         -82.0038   25.7111  -71.4792 N.am      1 UNK        -0.4739 
      5 CA        -80.8625   25.7724  -72.3930 C.3       1 UNK         0.0864 
      6 C6        -79.6217   25.0149  -71.8445 C.3       11 UNK        -0.0881 
      7 S7        -78.9013   25.7276  -70.3242 S.3       11 UNK        -0.2682 
      8 C8        -77.1983   26.1366  -70.8492 C.3       11 UNK         0.0289 
      9 C9        -77.0728   27.5674  -71.3591 C.ar      11 UNK        -0.0687 
     10 C10       -77.8436   28.0037  -72.4365 C.ar      11 UNK        -0.0823 
     11 C11       -77.7712   29.3230  -72.8981 C.ar      11 UNK        -0.0830 
     12 C12       -76.8667   30.1995  -72.2895 C.ar      11 UNK        -0.1021 
     13 C13       -76.0622   29.7702  -71.2288 C.ar      11 UNK        -0.0753 
     14 C14       -76.1795   28.4583  -70.7599 C.ar      11 UNK        -0.0933 
     15 C15       -75.0751   30.7190  -70.5691 C.3       11 UNK         0.0166 
     16 S16       -73.4104   30.5288  -71.2755 S.3       11 UNK        -0.2615 
     17 C17       -73.3731   31.8911  -72.4939 C.3       11 UNK        -0.0865 
     18 CA        -72.2029   31.7977  -73.5088 C.3       10 UNK         0.0862 
     19 C         -70.8090   31.8956  -72.8156 C.2       10 UNK         0.5551 
     20 N         -70.0072   30.8358  -72.7840 N.am      10 UNK        -0.7319 
     21 O         -70.4502   32.9561  -72.3095 O.2       10 UNK        -0.5018 
     22 N         -72.3632   30.6465  -74.4080 N.am      10 UNK        -0.4509 
     23 C         -71.6942   30.4747  -75.5562 C.2       10 UNK         0.4899 
     24 O         -70.9786   31.3427  -76.0587 O.2       10 UNK        -0.4839 
     25 CA        -71.8457   29.1166  -76.2723 C.3       9 UNK         0.0222 
     26 CB        -70.5271   28.6508  -76.9240 C.3       9 UNK        -0.1966 
     27 N         -72.4115   28.0425  -75.4456 N.am      9 UNK        -0.4218 
     28 C         -71.9177   27.5240  -74.3100 C.2       9 UNK         0.5020 
     29 O         -70.9058   27.9407  -73.7429 O.2       9 UNK        -0.5274 
     30 CA        -72.6996   26.3485  -73.6991 C.3       8 UNK         0.0270 
     31 CB        -73.9008   26.8603  -72.8890 C.3       8 UNK        -0.1976 
     32 N         -73.1626   25.3876  -74.7043 N.am      8 UNK        -0.4313 
     33 C         -72.3566   24.5970  -75.4290 C.2       8 UNK         0.5041 
     34 O         -71.1332   24.5521  -75.2939 O.2       8 UNK        -0.5577 
     35 CA        -73.0261   23.7133  -76.4931 C.3       7 UNK         0.0284 
     36 CB        -73.6599   22.4641  -75.8576 C.3       7 UNK        -0.1958 
     37 N         -74.0341   24.4539  -77.2527 N.am      7 UNK        -0.4454 
     38 C         -73.7550   25.3348  -78.2243 C.2       7 UNK         0.5089 
     39 O         -72.6186   25.5649  -78.6374 O.2       7 UNK        -0.5125 
     40 CA        -74.9453   26.0971  -78.8353 C.3       6 UNK         0.0408 
     41 CB        -75.4826   25.3555  -80.0690 C.3       6 UNK        -0.1791 
     42 N         -76.0382   26.3129  -77.8829 N.am      6 UNK        -0.4762 
     43 C         -75.9623   27.1300  -76.8203 C.2       6 UNK         0.5007 
     44 O         -74.9753   27.8150  -76.5592 O.2       6 UNK        -0.5032 
     45 CA        -77.1616   27.1473  -75.8519 C.3       5 UNK         0.0783 
     46 C46       -78.1542   28.2568  -76.2742 C.3       11 UNK        -0.0857 
     47 S47       -79.4674   28.5688  -75.0517 S.3       11 UNK        -0.2512 
     48 C48       -78.6925   29.8502  -74.0007 C.3       11 UNK         0.0225 
     49 N         -77.7764   25.8162  -75.7251 N.am      5 UNK        -0.4615 
     50 C         -77.1129   24.7455  -75.2543 C.2       4 UNK         0.5053 
     51 O         -75.9949   24.8301  -74.7451 O.2       4 UNK        -0.5105 
     52 CA        -77.7185   23.3422  -75.4489 C.3       4 UNK         0.0263 
     53 CB        -77.8850   22.5776  -74.1254 C.3       4 UNK        -0.1981 
     54 N         -78.9739   23.3316  -76.2016 N.am      4 UNK        -0.4224 
     55 C         -79.0486   23.4490  -77.5363 C.2       3 UNK         0.4895 
     56 O         -78.0616   23.5731  -78.2624 O.2       3 UNK        -0.5091 
     57 CA        -80.4529   23.4733  -78.1690 C.3       3 UNK         0.0250 
     58 CB        -80.8696   22.0593  -78.6037 C.3       3 UNK        -0.1996 
     59 N         -81.4882   24.0389  -77.2972 N.am      3 UNK        -0.4254 
     60 C         -81.4827   25.2920  -76.8214 C.2       2 UNK         0.5004 
     61 O         -80.6036   26.1100  -77.0912 O.2       2 UNK        -0.5226 
     62 CA        -82.6067   25.6978  -75.8467 C.3       2 UNK         0.0269 
     63 CB        -83.7602   24.6730  -75.7435 C.3       2 UNK        -0.1926 
     64 N         -82.0740   26.0072  -74.5119 N.am      2 UNK        -0.4687 
     65 C         -81.3298   25.1979  -73.7422 C.2       1 UNK         0.5165 
     66 O         -81.0409   24.0394  -74.0501 O.2       1 UNK        -0.5079 
     67 H67       -82.3236   28.7460  -70.0384 H         1 UNK         0.0900 
     68 H68       -82.0043   28.5617  -71.7597 H         1 UNK         0.0900 
     69 H69       -80.8036   28.0388  -70.5640 H         1 UNK         0.0900 
     70 H70       -82.4679   24.8134  -71.4527 H         1 UNK         0.2959 
     71 H71       -80.5817   26.8052  -72.5900 H         1 UNK         0.1079 
     72 H72       -79.8760   23.9754  -71.6285 H         1 UNK         0.0837 
     73 H73       -78.8469   24.9817  -72.6104 H         1 UNK         0.0837 
     74 H74       -76.5412   25.9868  -69.9914 H         1 UNK         0.0685 
     75 H75       -76.8516   25.4415  -71.6152 H         1 UNK         0.0685 
     76 H76       -78.5093   27.3026  -72.9056 H         1 UNK         0.1434 
     77 H77       -76.7958   31.2223  -72.6336 H         1 UNK         0.1329 
     78 H78       -75.5646   28.1308  -69.9327 H         1 UNK         0.1335 
     79 H79       -75.4107   31.7534  -70.6585 H         1 UNK         0.0680 
     80 H80       -75.0262   30.5095  -69.4994 H         1 UNK         0.0680 
     81 H81       -73.3232   32.8372  -71.9514 H         1 UNK         0.1032 
     82 H82       -74.3215   31.9102  -73.0328 H         1 UNK         0.1032 
     83 H83       -72.2735   32.6862  -74.1395 H         1 UNK         0.0461 
     84 H84       -69.1071   30.9080  -72.3378 H         1 UNK         0.3453 
     85 H85       -70.3114   29.9515  -73.1734 H         1 UNK         0.3453 
     86 H86       -72.9128   29.8798  -74.0503 H         1 UNK         0.2984 
     87 H87       -72.5669   29.2821  -77.0738 H         1 UNK         0.0554 
     88 H88       -70.6592   27.7043  -77.4490 H         1 UNK         0.0847 
     89 H89       -69.7368   28.5168  -76.1846 H         1 UNK         0.0847 
     90 H90       -70.1695   29.3769  -77.6549 H         1 UNK         0.0847 
     91 H91       -73.3027   27.6870  -75.7872 H         1 UNK         0.3141 
     92 H92       -72.0286   25.8222  -73.0170 H         1 UNK         0.0743 
     93 H93       -74.4314   26.0395  -72.4067 H         1 UNK         0.0784 
     94 H94       -73.5774   27.5425  -72.1020 H         1 UNK         0.0784 
     95 H95       -74.6161   27.3980  -73.5125 H         1 UNK         0.0784 
     96 H96       -74.1692   25.2991  -74.8259 H         1 UNK         0.3213 
     97 H97       -72.2500   23.3787  -77.1854 H         1 UNK         0.0855 
     98 H98       -74.4301   22.7176  -75.1291 H         1 UNK         0.0814 
     99 H99       -72.9063   21.8723  -75.3364 H         1 UNK         0.0814 
    100 H100      -74.1106   21.8197  -76.6125 H         1 UNK         0.0814 
    101 H101      -74.9954   24.3491  -76.9655 H         1 UNK         0.3105 
    102 H102      -74.5807   27.0746  -79.1585 H         1 UNK         0.0547 
    103 H103      -74.6954   25.2108  -80.8102 H         1 UNK         0.0837 
    104 H104      -75.8721   24.3698  -79.8113 H         1 UNK         0.0837 
    105 H105      -76.2824   25.9161  -80.5531 H         1 UNK         0.0837 
    106 H106      -76.8778   25.7646  -78.0202 H         1 UNK         0.3020 
    107 H107      -76.7513   27.4121  -74.8764 H         1 UNK         0.1245 
    108 H108      -78.6326   27.9950  -77.2198 H         1 UNK         0.0781 
    109 H109      -77.6306   29.1969  -76.4597 H         1 UNK         0.0781 
    110 H110      -79.4929   30.4147  -73.5206 H         1 UNK         0.0836 
    111 H111      -78.1570   30.5625  -74.6300 H         1 UNK         0.0836 
    112 H112      -78.6969   25.7064  -76.1360 H         1 UNK         0.3022 
    113 H113      -76.9765   22.7895  -76.0294 H         1 UNK         0.0747 
    114 H114      -78.0262   21.5127  -74.3103 H         1 UNK         0.0793 
    115 H115      -77.0031   22.6768  -73.4906 H         1 UNK         0.0793 
    116 H116      -78.7431   22.9206  -73.5539 H         1 UNK         0.0793 
    117 H117      -79.8303   23.2987  -75.6583 H         1 UNK         0.3047 
    118 H118      -80.3942   24.1020  -79.0601 H         1 UNK         0.0822 
    119 H119      -81.8190   22.0715  -79.1394 H         1 UNK         0.0807 
    120 H120      -80.9726   21.3878  -77.7503 H         1 UNK         0.0807 
    121 H121      -80.1276   21.6229  -79.2740 H         1 UNK         0.0807 
    122 H122      -82.2309   23.4192  -77.0071 H         1 UNK         0.2946 
    123 H123      -83.0225   26.6258  -76.2432 H         1 UNK         0.1144 
    124 H124      -84.2031   24.4762  -76.7209 H         1 UNK         0.0793 
    125 H125      -84.5590   25.0524  -75.1062 H         1 UNK         0.0793 
    126 H126      -83.4359   23.7197  -75.3247 H         1 UNK         0.0793 
    127 H127      -82.2495   26.9479  -74.1876 H         1 UNK         0.2896 
@<TRIPOS>BOND
     1    1    2 1    
     2    1   67 1    
     3    1   68 1    
     4    1   69 1    
     5    2    3 2    
     6    2    4 am   BACKBONE|DICT|INTERRES
     7    4    5 1    
     8    4   70 1    
     9    5    6 1    
    10    5   65 1    
    11    5   71 1    
    12    6    7 1    
    13    6   72 1    
    14    6   73 1    
    15    7    8 1    
    16    8    9 1    
    17    8   74 1    
    18    8   75 1    
    19    9   10 ar   
    20    9   14 ar   
    21   10   11 ar   
    22   10   76 1    
    23   11   12 ar   
    24   11   48 1    
    25   12   13 ar   
    26   12   77 1    
    27   13   14 ar   
    28   13   15 1    
    29   14   78 1    
    30   15   16 1    
    31   15   79 1    
    32   15   80 1    
    33   16   17 1    
    34   17   18 1    
    35   17   81 1    
    36   17   82 1    
    37   18   19 1    
    38   18   22 1    
    39   18   83 1    
    40   19   20 am   BACKBONE|DICT|INTERRES
    41   19   21 2    
    42   20   84 1    
    43   20   85 1    
    44   22   23 am   BACKBONE|DICT|INTERRES
    45   22   86 1    
    46   23   24 2    
    47   23   25 1    
    48   25   26 1    
    49   25   27 1    
    50   25   87 1    
    51   26   88 1    
    52   26   89 1    
    53   26   90 1    
    54   27   28 am   BACKBONE|DICT|INTERRES
    55   27   91 1    
    56   28   29 2    
    57   28   30 1    
    58   30   31 1    
    59   30   32 1    
    60   30   92 1    
    61   31   93 1    
    62   31   94 1    
    63   31   95 1    
    64   32   33 am   BACKBONE|DICT|INTERRES
    65   32   96 1    
    66   33   34 2    
    67   33   35 1    
    68   35   36 1    
    69   35   37 1    
    70   35   97 1    
    71   36   98 1    
    72   36   99 1    
    73   36  100 1    
    74   37   38 am   BACKBONE|DICT|INTERRES
    75   37  101 1    
    76   38   39 2    
    77   38   40 1    
    78   40   41 1    
    79   40   42 1    
    80   40  102 1    
    81   41  103 1    
    82   41  104 1    
    83   41  105 1    
    84   42   43 am   BACKBONE|DICT|INTERRES
    85   42  106 1    
    86   43   44 2    
    87   43   45 1    
    88   45   46 1    
    89   45   49 1    
    90   45  107 1    
    91   46   47 1    
    92   46  108 1    
    93   46  109 1    
    94   47   48 1    
    95   48  110 1    
    96   48  111 1    
    97   49   50 am   BACKBONE|DICT|INTERRES
    98   49  112 1    
    99   50   51 2    
   100   50   52 1    
   101   52   53 1    
   102   52   54 1    
   103   52  113 1    
   104   53  114 1    
   105   53  115 1    
   106   53  116 1    
   107   54   55 am   BACKBONE|DICT|INTERRES
   108   54  117 1    
   109   55   56 2    
   110   55   57 1    
   111   57   58 1    
   112   57   59 1    
   113   57  118 1    
   114   58  119 1    
   115   58  120 1    
   116   58  121 1    
   117   59   60 am   BACKBONE|DICT|INTERRES
   118   59  122 1    
   119   60   61 2    
   120   60   62 1    
   121   62   63 1    
   122   62   64 1    
   123   62  123 1    
   124   63  124 1    
   125   63  125 1    
   126   63  126 1    
   127   64   65 am   BACKBONE|DICT|INTERRES
   128   64  127 1    
   129   65   66 2    
@<TRIPOS>SUBSTRUCTURE
     1 UNK         1 GROUP             0       ****    0 ROOT    
