@<TRIPOS>MOLECULE
3R135
127   129    1
SMALL
USER_CHARGES


@<TRIPOS>ATOM
      1 CA        -83.5185   30.3198  -75.9140 C.3       0 UNK        -0.1998 
      2 C         -82.5706   29.2781  -75.3391 C.2       0 UNK         0.4909 
      3 O         -81.7084   28.7715  -76.0577 O.2       0 UNK        -0.5240 
      4 N         -82.7159   28.9633  -74.0459 N.am      1 UNK        -0.4739 
      5 CA        -81.9231   27.9493  -73.3426 C.3       1 UNK         0.0864 
      6 C6        -82.0404   28.0933  -71.8044 C.3       11 UNK        -0.0881 
      7 S7        -81.5304   29.7014  -71.0884 S.3       11 UNK        -0.2682 
      8 C8        -80.2100   30.3480  -72.1832 C.3       11 UNK         0.0289 
      9 C9        -78.8811   29.5854  -72.1889 C.ar      11 UNK        -0.0687 
     10 C10       -78.6024   28.5167  -71.3255 C.ar      11 UNK        -0.0823 
     11 C11       -77.3641   27.8673  -71.3577 C.ar      11 UNK        -0.0830 
     12 C12       -76.3850   28.3119  -72.2530 C.ar      11 UNK        -0.1021 
     13 C13       -76.6390   29.3824  -73.1132 C.ar      11 UNK        -0.0753 
     14 C14       -77.8896   30.0047  -73.0822 C.ar      11 UNK        -0.0933 
     15 C15       -75.5647   29.8706  -74.0755 C.3       11 UNK         0.0166 
     16 S16       -74.6610   31.3038  -73.4075 S.3       11 UNK        -0.2615 
     17 C17       -73.5719   30.5161  -72.1701 C.3       11 UNK        -0.0865 
     18 CA        -72.0657   30.8020  -72.4079 C.3       10 UNK         0.0862 
     19 C         -71.2134   30.1971  -71.2522 C.2       10 UNK         0.5551 
     20 N         -70.3640   29.2064  -71.4963 N.am      10 UNK        -0.7319 
     21 O         -71.3276   30.6394  -70.1118 O.2       10 UNK        -0.5018 
     22 N         -71.6440   30.4166  -73.7658 N.am      10 UNK        -0.4509 
     23 C         -70.5029   30.7774  -74.3635 C.2       10 UNK         0.4899 
     24 O         -69.6553   31.4985  -73.8346 O.2       10 UNK        -0.4839 
     25 CA        -70.2698   30.2253  -75.7863 C.3       9 UNK         0.0222 
     26 CB        -68.8973   30.6261  -76.3603 C.3       9 UNK        -0.1966 
     27 N         -70.4029   28.7648  -75.8482 N.am      9 UNK        -0.4218 
     28 C         -71.5621   28.0956  -75.8748 C.2       9 UNK         0.5020 
     29 O         -72.6646   28.6457  -75.8271 O.2       9 UNK        -0.5274 
     30 CA        -71.4683   26.5640  -75.8871 C.3       8 UNK         0.0270 
     31 CB        -71.3854   26.0238  -74.4492 C.3       8 UNK        -0.1976 
     32 N         -72.6427   25.9956  -76.5487 N.am      8 UNK        -0.4313 
     33 C         -72.7263   25.7652  -77.8672 C.2       8 UNK         0.5041 
     34 O         -71.7844   25.9287  -78.6451 O.2       8 UNK        -0.5577 
     35 CA        -74.0678   25.2560  -78.4318 C.3       7 UNK         0.0284 
     36 CB        -74.0195   23.7321  -78.6302 C.3       7 UNK        -0.1958 
     37 N         -75.2222   25.5899  -77.5982 N.am      7 UNK        -0.4454 
     38 C         -75.7008   26.8251  -77.3979 C.2       7 UNK         0.5089 
     39 O         -75.3047   27.8189  -78.0069 O.2       7 UNK        -0.5125 
     40 CA        -76.7963   26.9844  -76.3268 C.3       6 UNK         0.0408 
     41 CB        -78.1770   27.1454  -76.9808 C.3       6 UNK        -0.1791 
     42 N         -76.8539   25.8898  -75.3526 N.am      6 UNK        -0.4762 
     43 C         -75.8795   25.5365  -74.5008 C.2       6 UNK         0.5007 
     44 O         -74.7777   26.0820  -74.4623 O.2       6 UNK        -0.5032 
     45 CA        -76.1638   24.3262  -73.5931 C.3       5 UNK         0.0783 
     46 C46       -77.0272   24.6988  -72.3617 C.3       11 UNK        -0.0857 
     47 S47       -76.0163   25.4007  -71.0169 S.3       11 UNK        -0.2512 
     48 C48       -77.0988   26.7244  -70.3784 C.3       11 UNK         0.0225 
     49 N         -76.7777   23.2496  -74.3711 N.am      5 UNK        -0.4615 
     50 C         -76.0957   22.3206  -75.0528 C.2       4 UNK         0.5053 
     51 O         -74.8673   22.2459  -75.0649 O.2       4 UNK        -0.5105 
     52 CA        -76.9157   21.2963  -75.8583 C.3       4 UNK         0.0263 
     53 CB        -77.1543   20.0275  -75.0241 C.3       4 UNK        -0.1981 
     54 N         -78.2038   21.8165  -76.3245 N.am      4 UNK        -0.4224 
     55 C         -78.3413   22.7581  -77.2679 C.2       3 UNK         0.4895 
     56 O         -77.3970   23.2742  -77.8649 O.2       3 UNK        -0.5091 
     57 CA        -79.7740   23.2322  -77.5703 C.3       3 UNK         0.0250 
     58 CB        -80.4347   22.3110  -78.6085 C.3       3 UNK        -0.1996 
     59 N         -80.6521   23.3589  -76.3973 N.am      3 UNK        -0.4254 
     60 C         -80.3800   24.0823  -75.3026 C.2       2 UNK         0.5004 
     61 O         -79.2882   24.6081  -75.0770 O.2       2 UNK        -0.5226 
     62 CA        -81.4927   24.2416  -74.2650 C.3       2 UNK         0.0269 
     63 CB        -81.3072   23.2311  -73.1213 C.3       2 UNK        -0.1926 
     64 N         -81.3803   25.5979  -73.7334 N.am      2 UNK        -0.4687 
     65 C         -82.3374   26.5287  -73.7811 C.2       1 UNK         0.5165 
     66 O         -83.5000   26.3005  -74.1279 O.2       1 UNK        -0.5079 
     67 H67       -84.2168   30.6931  -75.1651 H         1 UNK         0.0900 
     68 H68       -84.0960   29.8899  -76.7319 H         1 UNK         0.0900 
     69 H69       -82.9537   31.1666  -76.3030 H         1 UNK         0.0900 
     70 H70       -83.4511   29.3950  -73.5047 H         1 UNK         0.2959 
     71 H71       -80.8777   28.0794  -73.6304 H         1 UNK         0.1079 
     72 H72       -83.0709   27.9136  -71.4911 H         1 UNK         0.0837 
     73 H73       -81.4491   27.3195  -71.3114 H         1 UNK         0.0837 
     74 H74       -80.5867   30.4377  -73.2018 H         1 UNK         0.0685 
     75 H75       -79.9998   31.3683  -71.8597 H         1 UNK         0.0685 
     76 H76       -79.3389   28.1890  -70.6071 H         1 UNK         0.1434 
     77 H77       -75.4194   27.8272  -72.2808 H         1 UNK         0.1329 
     78 H78       -78.0840   30.8358  -73.7466 H         1 UNK         0.1335 
     79 H79       -74.8656   29.0671  -74.3134 H         1 UNK         0.0680 
     80 H80       -76.0255   30.1607  -75.0208 H         1 UNK         0.0680 
     81 H81       -73.7421   29.4392  -72.1571 H         1 UNK         0.1032 
     82 H82       -73.8799   30.8788  -71.1874 H         1 UNK         0.1032 
     83 H83       -71.9283   31.8828  -72.3385 H         1 UNK         0.0461 
     84 H84       -69.8166   28.8263  -70.7404 H         1 UNK         0.3453 
     85 H85       -70.2556   28.8490  -72.4308 H         1 UNK         0.3453 
     86 H86       -72.2844   29.8306  -74.2929 H         1 UNK         0.2984 
     87 H87       -71.0341   30.6708  -76.4269 H         1 UNK         0.0554 
     88 H88       -68.7752   30.2711  -77.3838 H         1 UNK         0.0847 
     89 H89       -68.0761   30.2250  -75.7648 H         1 UNK         0.0847 
     90 H90       -68.7840   31.7109  -76.3827 H         1 UNK         0.0847 
     91 H91       -69.5412   28.2372  -75.8455 H         1 UNK         0.3141 
     92 H92       -70.5645   26.2639  -76.4220 H         1 UNK         0.0743 
     93 H93       -72.2227   26.3638  -73.8384 H         1 UNK         0.0784 
     94 H94       -71.3818   24.9338  -74.4340 H         1 UNK         0.0784 
     95 H95       -70.4707   26.3575  -73.9579 H         1 UNK         0.0784 
     96 H96       -73.4817   25.9346  -75.9786 H         1 UNK         0.3213 
     97 H97       -74.2107   25.7257  -79.4073 H         1 UNK         0.0855 
     98 H98       -73.9142   23.2049  -77.6810 H         1 UNK         0.0814 
     99 H99       -73.1753   23.4456  -79.2590 H         1 UNK         0.0814 
    100 H100      -74.9233   23.3666  -79.1182 H         1 UNK         0.0814 
    101 H101      -75.6693   24.8270  -77.1076 H         1 UNK         0.3105 
    102 H102      -76.5764   27.8973  -75.7746 H         1 UNK         0.0547 
    103 H103      -78.1851   27.9848  -77.6772 H         1 UNK         0.0837 
    104 H104      -78.4604   26.2536  -77.5398 H         1 UNK         0.0837 
    105 H105      -78.9512   27.3358  -76.2368 H         1 UNK         0.0837 
    106 H106      -77.7377   25.3824  -75.3051 H         1 UNK         0.3020 
    107 H107      -75.1972   23.9671  -73.2303 H         1 UNK         0.1245 
    108 H108      -77.5065   23.8066  -71.9556 H         1 UNK         0.0781 
    109 H109      -77.8415   25.3743  -72.6318 H         1 UNK         0.0781 
    110 H110      -76.6396   27.1426  -69.4819 H         1 UNK         0.0836 
    111 H111      -78.0385   26.2707  -70.0589 H         1 UNK         0.0836 
    112 H112      -77.7829   23.2992  -74.4822 H         1 UNK         0.3022 
    113 H113      -76.3250   21.0225  -76.7354 H         1 UNK         0.0747 
    114 H114      -77.6630   19.2590  -75.6065 H         1 UNK         0.0793 
    115 H115      -76.2093   19.6009  -74.6844 H         1 UNK         0.0793 
    116 H116      -77.7562   20.2328  -74.1379 H         1 UNK         0.0793 
    117 H117      -79.0360   21.4510  -75.8849 H         1 UNK         0.3047 
    118 H118      -79.6915   24.2270  -78.0120 H         1 UNK         0.0822 
    119 H119      -81.3976   22.7050  -78.9343 H         1 UNK         0.0807 
    120 H120      -80.5978   21.3073  -78.2140 H         1 UNK         0.0807 
    121 H121      -79.8106   22.2140  -79.4983 H         1 UNK         0.0807 
    122 H122      -81.5672   22.9395  -76.4822 H         1 UNK         0.2946 
    123 H123      -82.4617   24.0828  -74.7441 H         1 UNK         0.1144 
    124 H124      -82.0742   23.3571  -72.3569 H         1 UNK         0.0793 
    125 H125      -80.3348   23.3381  -72.6382 H         1 UNK         0.0793 
    126 H126      -81.3804   22.2064  -73.4878 H         1 UNK         0.0793 
    127 H127      -80.4355   25.8741  -73.5013 H         1 UNK         0.2896 
@<TRIPOS>BOND
     1    1    2 1    
     2    1   67 1    
     3    1   68 1    
     4    1   69 1    
     5    2    3 2    
     6    2    4 am   BACKBONE|DICT|INTERRES
     7    4    5 1    
     8    4   70 1    
     9    5    6 1    
    10    5   65 1    
    11    5   71 1    
    12    6    7 1    
    13    6   72 1    
    14    6   73 1    
    15    7    8 1    
    16    8    9 1    
    17    8   74 1    
    18    8   75 1    
    19    9   10 ar   
    20    9   14 ar   
    21   10   11 ar   
    22   10   76 1    
    23   11   12 ar   
    24   11   48 1    
    25   12   13 ar   
    26   12   77 1    
    27   13   14 ar   
    28   13   15 1    
    29   14   78 1    
    30   15   16 1    
    31   15   79 1    
    32   15   80 1    
    33   16   17 1    
    34   17   18 1    
    35   17   81 1    
    36   17   82 1    
    37   18   19 1    
    38   18   22 1    
    39   18   83 1    
    40   19   20 am   BACKBONE|DICT|INTERRES
    41   19   21 2    
    42   20   84 1    
    43   20   85 1    
    44   22   23 am   BACKBONE|DICT|INTERRES
    45   22   86 1    
    46   23   24 2    
    47   23   25 1    
    48   25   26 1    
    49   25   27 1    
    50   25   87 1    
    51   26   88 1    
    52   26   89 1    
    53   26   90 1    
    54   27   28 am   BACKBONE|DICT|INTERRES
    55   27   91 1    
    56   28   29 2    
    57   28   30 1    
    58   30   31 1    
    59   30   32 1    
    60   30   92 1    
    61   31   93 1    
    62   31   94 1    
    63   31   95 1    
    64   32   33 am   BACKBONE|DICT|INTERRES
    65   32   96 1    
    66   33   34 2    
    67   33   35 1    
    68   35   36 1    
    69   35   37 1    
    70   35   97 1    
    71   36   98 1    
    72   36   99 1    
    73   36  100 1    
    74   37   38 am   BACKBONE|DICT|INTERRES
    75   37  101 1    
    76   38   39 2    
    77   38   40 1    
    78   40   41 1    
    79   40   42 1    
    80   40  102 1    
    81   41  103 1    
    82   41  104 1    
    83   41  105 1    
    84   42   43 am   BACKBONE|DICT|INTERRES
    85   42  106 1    
    86   43   44 2    
    87   43   45 1    
    88   45   46 1    
    89   45   49 1    
    90   45  107 1    
    91   46   47 1    
    92   46  108 1    
    93   46  109 1    
    94   47   48 1    
    95   48  110 1    
    96   48  111 1    
    97   49   50 am   BACKBONE|DICT|INTERRES
    98   49  112 1    
    99   50   51 2    
   100   50   52 1    
   101   52   53 1    
   102   52   54 1    
   103   52  113 1    
   104   53  114 1    
   105   53  115 1    
   106   53  116 1    
   107   54   55 am   BACKBONE|DICT|INTERRES
   108   54  117 1    
   109   55   56 2    
   110   55   57 1    
   111   57   58 1    
   112   57   59 1    
   113   57  118 1    
   114   58  119 1    
   115   58  120 1    
   116   58  121 1    
   117   59   60 am   BACKBONE|DICT|INTERRES
   118   59  122 1    
   119   60   61 2    
   120   60   62 1    
   121   62   63 1    
   122   62   64 1    
   123   62  123 1    
   124   63  124 1    
   125   63  125 1    
   126   63  126 1    
   127   64   65 am   BACKBONE|DICT|INTERRES
   128   64  127 1    
   129   65   66 2    
@<TRIPOS>SUBSTRUCTURE
     1 UNK         1 GROUP             0       ****    0 ROOT    
