@<TRIPOS>MOLECULE
3R135
127   129    1
SMALL
USER_CHARGES


@<TRIPOS>ATOM
      1 CA        -82.2849   31.1360  -75.9697 C.3       0 UNK        -0.1998 
      2 C         -81.1253   30.2439  -76.3862 C.2       0 UNK         0.4909 
      3 O         -80.7405   30.2451  -77.5557 O.2       0 UNK        -0.5240 
      4 N         -80.5680   29.4774  -75.4391 N.am      1 UNK        -0.4739 
      5 CA        -79.4255   28.5758  -75.6564 C.3       1 UNK         0.0864 
      6 C6        -78.6836   28.2480  -74.3348 C.3       11 UNK        -0.0881 
      7 S7        -78.1131   29.7484  -73.4655 S.3       11 UNK        -0.2682 
      8 C8        -78.3472   29.2731  -71.7235 C.3       11 UNK         0.0289 
      9 C9        -77.2427   28.3389  -71.2527 C.ar      11 UNK        -0.0687 
     10 C10       -77.4235   26.9524  -71.2648 C.ar      11 UNK        -0.0823 
     11 C11       -76.4021   26.0969  -70.8368 C.ar      11 UNK        -0.0830 
     12 C12       -75.1876   26.6464  -70.4063 C.ar      11 UNK        -0.1021 
     13 C13       -74.9933   28.0316  -70.3934 C.ar      11 UNK        -0.0753 
     14 C14       -76.0342   28.8706  -70.7977 C.ar      11 UNK        -0.0933 
     15 C15       -73.6690   28.6185  -69.9217 C.3       11 UNK         0.0166 
     16 S16       -72.6557   29.2436  -71.3050 S.3       11 UNK        -0.2615 
     17 C17       -73.2802   30.9509  -71.5107 C.3       11 UNK        -0.0865 
     18 CA        -74.1000   31.1508  -72.8201 C.3       10 UNK         0.0862 
     19 C         -74.9078   32.4847  -72.8357 C.2       10 UNK         0.5551 
     20 N         -75.1217   33.1150  -73.9845 N.am      10 UNK        -0.7319 
     21 O         -75.3766   32.9435  -71.7967 O.2       10 UNK        -0.5018 
     22 N         -73.3196   30.8856  -74.0406 N.am      10 UNK        -0.4509 
     23 C         -72.2553   31.5698  -74.4875 C.2       10 UNK         0.4899 
     24 O         -71.7774   32.5451  -73.9060 O.2       10 UNK        -0.4839 
     25 CA        -71.6389   31.1094  -75.8291 C.3       9 UNK         0.0222 
     26 CB        -70.1444   31.4741  -75.9618 C.3       9 UNK        -0.1966 
     27 N         -71.8744   29.6886  -76.1196 N.am      9 UNK        -0.4218 
     28 C         -71.4463   28.6324  -75.4105 C.2       9 UNK         0.5020 
     29 O         -70.6139   28.7109  -74.5055 O.2       9 UNK        -0.5274 
     30 CA        -72.0579   27.2559  -75.7594 C.3       8 UNK         0.0270 
     31 CB        -72.2088   26.3716  -74.5043 C.3       8 UNK        -0.1976 
     32 N         -73.3322   27.2961  -76.5003 N.am      8 UNK        -0.4313 
     33 C         -74.4702   27.9182  -76.1572 C.2       8 UNK         0.5041 
     34 O         -74.5915   28.6233  -75.1579 O.2       8 UNK        -0.5577 
     35 CA        -75.6740   27.7623  -77.0996 C.3       7 UNK         0.0284 
     36 CB        -75.4581   28.5019  -78.4347 C.3       7 UNK        -0.1958 
     37 N         -76.0943   26.3709  -77.2978 N.am      7 UNK        -0.4454 
     38 C         -75.4343   25.3746  -77.9015 C.2       7 UNK         0.5089 
     39 O         -74.3447   25.5082  -78.4641 O.2       7 UNK        -0.5125 
     40 CA        -76.0974   23.9897  -77.7923 C.3       6 UNK         0.0408 
     41 CB        -75.4652   22.9418  -78.7320 C.3       6 UNK        -0.1791 
     42 N         -76.1083   23.5122  -76.4029 N.am      6 UNK        -0.4762 
     43 C         -75.0441   23.3011  -75.6059 C.2       6 UNK         0.5007 
     44 O         -73.8764   23.4342  -75.9711 O.2       6 UNK        -0.5032 
     45 CA        -75.3107   22.8622  -74.1484 C.3       5 UNK         0.0783 
     46 C46       -75.2237   24.0851  -73.2024 C.3       11 UNK        -0.0857 
     47 S47       -75.2517   23.6004  -71.4459 S.3       11 UNK        -0.2512 
     48 C48       -76.6424   24.5884  -70.7996 C.3       11 UNK         0.0225 
     49 N         -76.5775   22.1416  -73.9932 N.am      5 UNK        -0.4615 
     50 C         -76.8683   20.9553  -74.5424 C.2       4 UNK         0.5053 
     51 O         -76.0430   20.2601  -75.1355 O.2       4 UNK        -0.5105 
     52 CA        -78.3270   20.4617  -74.4383 C.3       4 UNK         0.0263 
     53 CB        -78.4270   19.3099  -73.4242 C.3       4 UNK        -0.1981 
     54 N         -79.3302   21.4829  -74.0967 N.am      4 UNK        -0.4224 
     55 C         -79.5593   22.6282  -74.7562 C.2       3 UNK         0.4895 
     56 O         -78.8848   23.0123  -75.7149 O.2       3 UNK        -0.5091 
     57 CA        -80.6894   23.5124  -74.1943 C.3       3 UNK         0.0250 
     58 CB        -80.2770   24.1144  -72.8389 C.3       3 UNK        -0.1996 
     59 N         -81.0391   24.6155  -75.0896 N.am      3 UNK        -0.4254 
     60 C         -81.5721   24.5073  -76.3138 C.2       2 UNK         0.5004 
     61 O         -81.9664   23.4442  -76.7966 O.2       2 UNK        -0.5226 
     62 CA        -81.7037   25.8051  -77.1374 C.3       2 UNK         0.0269 
     63 CB        -83.1780   26.0966  -77.4675 C.3       2 UNK        -0.1926 
     64 N         -81.1267   26.9903  -76.4892 N.am      2 UNK        -0.4687 
     65 C         -79.8184   27.2717  -76.3876 C.2       1 UNK         0.5165 
     66 O         -78.9318   26.5320  -76.8153 O.2       1 UNK        -0.5079 
     67 H67       -82.0430   32.1803  -76.1651 H         1 UNK         0.0900 
     68 H68       -83.1784   30.8806  -76.5389 H         1 UNK         0.0900 
     69 H69       -82.5172   31.0349  -74.9096 H         1 UNK         0.0900 
     70 H70       -80.9048   29.5362  -74.4883 H         1 UNK         0.2959 
     71 H71       -78.7216   29.0913  -76.3132 H         1 UNK         0.1079 
     72 H72       -77.8066   27.6249  -74.5225 H         1 UNK         0.0837 
     73 H73       -79.3318   27.6699  -73.6741 H         1 UNK         0.0837 
     74 H74       -79.3292   28.8185  -71.5846 H         1 UNK         0.0685 
     75 H75       -78.3447   30.1774  -71.1129 H         1 UNK         0.0685 
     76 H76       -78.3669   26.5425  -71.5965 H         1 UNK         0.1434 
     77 H77       -74.3929   25.9930  -70.0732 H         1 UNK         0.1329 
     78 H78       -75.9023   29.9426  -70.7729 H         1 UNK         0.1335 
     79 H79       -73.8475   29.4083  -69.1910 H         1 UNK         0.0680 
     80 H80       -73.0904   27.8561  -69.3978 H         1 UNK         0.0680 
     81 H81       -72.4295   31.6331  -71.4887 H         1 UNK         0.1032 
     82 H82       -73.8765   31.2114  -70.6356 H         1 UNK         0.1032 
     83 H83       -74.8731   30.3834  -72.8352 H         1 UNK         0.0461 
     84 H84       -74.7579   32.7390  -74.8448 H         1 UNK         0.3453 
     85 H85       -75.6544   33.9702  -73.9887 H         1 UNK         0.3453 
     86 H86       -73.6523   30.0816  -74.5710 H         1 UNK         0.2984 
     87 H87       -72.1750   31.6602  -76.6031 H         1 UNK         0.0554 
     88 H88       -70.0005   32.5543  -75.9162 H         1 UNK         0.0847 
     89 H89       -69.7344   31.1346  -76.9128 H         1 UNK         0.0847 
     90 H90       -69.5464   31.0363  -75.1621 H         1 UNK         0.0847 
     91 H91       -72.5477   29.5003  -76.8485 H         1 UNK         0.3141 
     92 H92       -71.3390   26.7707  -76.4210 H         1 UNK         0.0743 
     93 H93       -71.2586   26.2509  -73.9829 H         1 UNK         0.0784 
     94 H94       -72.5508   25.3731  -74.7698 H         1 UNK         0.0784 
     95 H95       -72.9183   26.7985  -73.7937 H         1 UNK         0.0784 
     96 H96       -73.3809   26.7110  -77.3328 H         1 UNK         0.3213 
     97 H97       -76.5125   28.2485  -76.6015 H         1 UNK         0.0855 
     98 H98       -74.6305   28.0880  -79.0111 H         1 UNK         0.0814 
     99 H99       -75.2370   29.5560  -78.2624 H         1 UNK         0.0814 
    100 H100      -76.3520   28.4579  -79.0570 H         1 UNK         0.0814 
    101 H101      -77.0113   26.1538  -76.9150 H         1 UNK         0.3105 
    102 H102      -77.1412   24.1101  -78.0874 H         1 UNK         0.0547 
    103 H103      -75.9790   21.9835  -78.6577 H         1 UNK         0.0837 
    104 H104      -74.4109   22.7741  -78.5103 H         1 UNK         0.0837 
    105 H105      -75.5285   23.2658  -79.7713 H         1 UNK         0.0837 
    106 H106      -77.0371   23.3533  -76.0162 H         1 UNK         0.3020 
    107 H107      -74.5083   22.1690  -73.8852 H         1 UNK         0.1245 
    108 H108      -76.0285   24.7927  -73.4115 H         1 UNK         0.0781 
    109 H109      -74.2942   24.6328  -73.3614 H         1 UNK         0.0781 
    110 H110      -76.8224   24.2955  -69.7645 H         1 UNK         0.0836 
    111 H111      -77.5440   24.3229  -71.3520 H         1 UNK         0.0836 
    112 H112      -77.3121   22.6306  -73.5065 H         1 UNK         0.3022 
    113 H113      -78.5936   20.0726  -75.4230 H         1 UNK         0.0747 
    114 H114      -79.4225   18.8656  -73.4220 H         1 UNK         0.0793 
    115 H115      -77.7218   18.5128  -73.6647 H         1 UNK         0.0793 
    116 H116      -78.2046   19.6458  -72.4105 H         1 UNK         0.0793 
    117 H117      -79.9222   21.2655  -73.3075 H         1 UNK         0.3047 
    118 H118      -81.5763   22.8898  -74.0594 H         1 UNK         0.0822 
    119 H119      -81.0766   24.7232  -72.4161 H         1 UNK         0.0807 
    120 H120      -79.3929   24.7451  -72.9362 H         1 UNK         0.0807 
    121 H121      -80.0486   23.3391  -72.1066 H         1 UNK         0.0807 
    122 H122      -80.7449   25.5354  -74.8028 H         1 UNK         0.2946 
    123 H123      -81.1686   25.6350  -78.0746 H         1 UNK         0.1144 
    124 H124      -83.2756   26.9746  -78.1064 H         1 UNK         0.0793 
    125 H125      -83.7668   26.2687  -76.5657 H         1 UNK         0.0793 
    126 H126      -83.6342   25.2608  -77.9998 H         1 UNK         0.0793 
    127 H127      -81.7795   27.6567  -76.1021 H         1 UNK         0.2896 
@<TRIPOS>BOND
     1    1    2 1    
     2    1   67 1    
     3    1   68 1    
     4    1   69 1    
     5    2    3 2    
     6    2    4 am   BACKBONE|DICT|INTERRES
     7    4    5 1    
     8    4   70 1    
     9    5    6 1    
    10    5   65 1    
    11    5   71 1    
    12    6    7 1    
    13    6   72 1    
    14    6   73 1    
    15    7    8 1    
    16    8    9 1    
    17    8   74 1    
    18    8   75 1    
    19    9   10 ar   
    20    9   14 ar   
    21   10   11 ar   
    22   10   76 1    
    23   11   12 ar   
    24   11   48 1    
    25   12   13 ar   
    26   12   77 1    
    27   13   14 ar   
    28   13   15 1    
    29   14   78 1    
    30   15   16 1    
    31   15   79 1    
    32   15   80 1    
    33   16   17 1    
    34   17   18 1    
    35   17   81 1    
    36   17   82 1    
    37   18   19 1    
    38   18   22 1    
    39   18   83 1    
    40   19   20 am   BACKBONE|DICT|INTERRES
    41   19   21 2    
    42   20   84 1    
    43   20   85 1    
    44   22   23 am   BACKBONE|DICT|INTERRES
    45   22   86 1    
    46   23   24 2    
    47   23   25 1    
    48   25   26 1    
    49   25   27 1    
    50   25   87 1    
    51   26   88 1    
    52   26   89 1    
    53   26   90 1    
    54   27   28 am   BACKBONE|DICT|INTERRES
    55   27   91 1    
    56   28   29 2    
    57   28   30 1    
    58   30   31 1    
    59   30   32 1    
    60   30   92 1    
    61   31   93 1    
    62   31   94 1    
    63   31   95 1    
    64   32   33 am   BACKBONE|DICT|INTERRES
    65   32   96 1    
    66   33   34 2    
    67   33   35 1    
    68   35   36 1    
    69   35   37 1    
    70   35   97 1    
    71   36   98 1    
    72   36   99 1    
    73   36  100 1    
    74   37   38 am   BACKBONE|DICT|INTERRES
    75   37  101 1    
    76   38   39 2    
    77   38   40 1    
    78   40   41 1    
    79   40   42 1    
    80   40  102 1    
    81   41  103 1    
    82   41  104 1    
    83   41  105 1    
    84   42   43 am   BACKBONE|DICT|INTERRES
    85   42  106 1    
    86   43   44 2    
    87   43   45 1    
    88   45   46 1    
    89   45   49 1    
    90   45  107 1    
    91   46   47 1    
    92   46  108 1    
    93   46  109 1    
    94   47   48 1    
    95   48  110 1    
    96   48  111 1    
    97   49   50 am   BACKBONE|DICT|INTERRES
    98   49  112 1    
    99   50   51 2    
   100   50   52 1    
   101   52   53 1    
   102   52   54 1    
   103   52  113 1    
   104   53  114 1    
   105   53  115 1    
   106   53  116 1    
   107   54   55 am   BACKBONE|DICT|INTERRES
   108   54  117 1    
   109   55   56 2    
   110   55   57 1    
   111   57   58 1    
   112   57   59 1    
   113   57  118 1    
   114   58  119 1    
   115   58  120 1    
   116   58  121 1    
   117   59   60 am   BACKBONE|DICT|INTERRES
   118   59  122 1    
   119   60   61 2    
   120   60   62 1    
   121   62   63 1    
   122   62   64 1    
   123   62  123 1    
   124   63  124 1    
   125   63  125 1    
   126   63  126 1    
   127   64   65 am   BACKBONE|DICT|INTERRES
   128   64  127 1    
   129   65   66 2    
@<TRIPOS>SUBSTRUCTURE
     1 UNK         1 GROUP             0       ****    0 ROOT    
