@<TRIPOS>MOLECULE
3R135
127   129    1
SMALL
USER_CHARGES


@<TRIPOS>ATOM
      1 CA        -82.1076   26.3355  -72.9214 C.3       0 UNK        -0.1998 
      2 C         -83.5552   26.7496  -73.1824 C.2       0 UNK         0.4909 
      3 O         -84.4382   26.2217  -72.5095 O.2       0 UNK        -0.5240 
      4 N         -83.8929   27.6538  -74.1190 N.am      1 UNK        -0.4739 
      5 CA        -83.0845   28.4503  -75.0616 C.3       1 UNK         0.0864 
      6 C6        -82.4646   29.7539  -74.4645 C.3       11 UNK        -0.0881 
      7 S7        -81.4153   29.5939  -72.9772 S.3       11 UNK        -0.2682 
      8 C8        -79.7514   29.6096  -73.7110 C.3       11 UNK         0.0289 
      9 C9        -78.6676   29.3487  -72.6744 C.ar      11 UNK        -0.0687 
     10 C10       -78.5774   28.1036  -72.0427 C.ar      11 UNK        -0.0823 
     11 C11       -77.5856   27.8599  -71.0871 C.ar      11 UNK        -0.0830 
     12 C12       -76.6684   28.8672  -70.7761 C.ar      11 UNK        -0.1021 
     13 C13       -76.7409   30.1114  -71.4089 C.ar      11 UNK        -0.0753 
     14 C14       -77.7439   30.3478  -72.3539 C.ar      11 UNK        -0.0933 
     15 C15       -75.7480   31.2095  -71.0606 C.3       11 UNK         0.0166 
     16 S16       -74.3749   31.2744  -72.2505 S.3       11 UNK        -0.2615 
     17 C17       -73.4249   29.7879  -71.7798 C.3       11 UNK        -0.0865 
     18 CA        -72.1001   29.6666  -72.5783 C.3       10 UNK         0.0862 
     19 C         -71.1677   28.5508  -72.0210 C.2       10 UNK         0.5551 
     20 N         -70.4525   27.8022  -72.8536 N.am      10 UNK        -0.7319 
     21 O         -71.0727   28.3683  -70.8097 O.2       10 UNK        -0.5018 
     22 N         -72.3662   29.5072  -74.0144 N.am      10 UNK        -0.4509 
     23 C         -71.8280   30.2374  -74.9957 C.2       10 UNK         0.4899 
     24 O         -71.0701   31.1916  -74.8103 O.2       10 UNK        -0.4839 
     25 CA        -72.1920   29.8045  -76.4296 C.3       9 UNK         0.0222 
     26 CB        -71.3397   30.5075  -77.5074 C.3       9 UNK        -0.1966 
     27 N         -72.1587   28.3475  -76.6154 N.am      9 UNK        -0.4218 
     28 C         -71.1154   27.5257  -76.4110 C.2       9 UNK         0.5020 
     29 O         -70.0189   27.9123  -76.0032 O.2       9 UNK        -0.5274 
     30 CA        -71.3079   26.0154  -76.6602 C.3       8 UNK         0.0270 
     31 CB        -70.9824   25.2137  -75.3877 C.3       8 UNK        -0.1976 
     32 N         -72.6502   25.6490  -77.1165 N.am      8 UNK        -0.4313 
     33 C         -73.1296   25.8316  -78.3535 C.2       8 UNK         0.5041 
     34 O         -72.4618   26.2713  -79.2898 O.2       8 UNK        -0.5577 
     35 CA        -74.6224   25.5216  -78.5655 C.3       7 UNK         0.0284 
     36 CB        -74.8324   24.0312  -78.8752 C.3       7 UNK        -0.1958 
     37 N         -75.4570   25.9080  -77.4225 N.am      7 UNK        -0.4454 
     38 C         -75.6007   27.1601  -76.9614 C.2       7 UNK         0.5089 
     39 O         -75.0555   28.1434  -77.4611 O.2       7 UNK        -0.5125 
     40 CA        -76.4558   27.3307  -75.6966 C.3       6 UNK         0.0408 
     41 CB        -77.9522   27.2148  -76.0287 C.3       6 UNK        -0.1791 
     42 N         -76.0949   26.3436  -74.6794 N.am      6 UNK        -0.4762 
     43 C         -74.9429   26.3462  -73.9931 C.2       6 UNK         0.5007 
     44 O         -74.0742   27.2104  -74.1170 O.2       6 UNK        -0.5032 
     45 CA        -74.6935   25.1538  -73.0466 C.3       5 UNK         0.0783 
     46 C46       -75.2277   25.4264  -71.6155 C.3       11 UNK        -0.0857 
     47 S47       -77.0288   25.1571  -71.4400 S.3       11 UNK        -0.2512 
     48 C48       -77.5364   26.5260  -70.3568 C.3       11 UNK         0.0225 
     49 N         -75.2000   23.8876  -73.5897 N.am      5 UNK        -0.4615 
     50 C         -74.7676   23.2915  -74.7076 C.2       4 UNK         0.5053 
     51 O         -73.8327   23.7105  -75.3860 O.2       4 UNK        -0.5105 
     52 CA        -75.5503   22.0526  -75.1782 C.3       4 UNK         0.0263 
     53 CB        -75.0349   20.7884  -74.4731 C.3       4 UNK        -0.1981 
     54 N         -77.0003   22.1748  -74.9803 N.am      4 UNK        -0.4224 
     55 C         -77.7638   23.1186  -75.5479 C.2       3 UNK         0.4895 
     56 O         -77.3278   23.9727  -76.3258 O.2       3 UNK        -0.5091 
     57 CA        -79.2441   23.1456  -75.1455 C.3       3 UNK         0.0250 
     58 CB        -79.3957   23.5771  -73.6711 C.3       3 UNK        -0.1996 
     59 N         -79.9378   24.0822  -76.0276 N.am      3 UNK        -0.4254 
     60 C         -81.2516   24.3219  -76.0684 C.2       2 UNK         0.5004 
     61 O         -82.0876   23.7294  -75.3822 O.2       2 UNK        -0.5226 
     62 CA        -81.7197   25.4204  -77.0294 C.3       2 UNK         0.0269 
     63 CB        -82.5757   24.8299  -78.1626 C.3       2 UNK        -0.1926 
     64 N         -82.5190   26.3778  -76.2655 N.am      2 UNK        -0.4687 
     65 C         -82.1612   27.6417  -76.0041 C.2       1 UNK         0.5165 
     66 O         -81.1587   28.1700  -76.4845 O.2       1 UNK        -0.5079 
     67 H67       -81.3826   26.7868  -73.5914 H         1 UNK         0.0900 
     68 H68       -82.0155   25.2546  -73.0157 H         1 UNK         0.0900 
     69 H69       -81.8279   26.6055  -71.9036 H         1 UNK         0.0900 
     70 H70       -84.8830   27.8369  -74.2077 H         1 UNK         0.2959 
     71 H71       -83.8343   28.8143  -75.7665 H         1 UNK         0.1079 
     72 H72       -81.9222   30.3127  -75.2295 H         1 UNK         0.0837 
     73 H73       -83.2841   30.4146  -74.1780 H         1 UNK         0.0837 
     74 H74       -79.5899   30.5654  -74.2117 H         1 UNK         0.0685 
     75 H75       -79.6954   28.8455  -74.4808 H         1 UNK         0.0685 
     76 H76       -79.2889   27.3266  -72.2842 H         1 UNK         0.1434 
     77 H77       -75.9019   28.6878  -70.0346 H         1 UNK         0.1329 
     78 H78       -77.8009   31.3118  -72.8406 H         1 UNK         0.1335 
     79 H79       -76.2570   32.1745  -71.0596 H         1 UNK         0.0680 
     80 H80       -75.3559   31.0725  -70.0516 H         1 UNK         0.0680 
     81 H81       -73.2276   29.8438  -70.7077 H         1 UNK         0.1032 
     82 H82       -74.0427   28.9025  -71.9361 H         1 UNK         0.1032 
     83 H83       -71.5450   30.5916  -72.4144 H         1 UNK         0.0461 
     84 H84       -69.8451   27.0929  -72.4761 H         1 UNK         0.3453 
     85 H85       -70.4708   27.9754  -73.8498 H         1 UNK         0.3453 
     86 H86       -72.9651   28.7185  -74.2500 H         1 UNK         0.2984 
     87 H87       -73.2291   30.1062  -76.5818 H         1 UNK         0.0554 
     88 H88       -71.6404   30.2042  -78.5102 H         1 UNK         0.0847 
     89 H89       -70.2783   30.2842  -77.3932 H         1 UNK         0.0847 
     90 H90       -71.4521   31.5908  -77.4503 H         1 UNK         0.0847 
     91 H91       -73.0355   27.9402  -76.9215 H         1 UNK         0.3141 
     92 H92       -70.5937   25.7269  -77.4340 H         1 UNK         0.0743 
     93 H93       -69.9628   25.4033  -75.0498 H         1 UNK         0.0784 
     94 H94       -71.6523   25.4751  -74.5678 H         1 UNK         0.0784 
     95 H95       -71.0677   24.1409  -75.5615 H         1 UNK         0.0784 
     96 H96       -73.2470   25.1884  -76.4327 H         1 UNK         0.3213 
     97 H97       -74.9601   26.1010  -79.4274 H         1 UNK         0.0855 
     98 H98       -74.5027   23.3973  -78.0520 H         1 UNK         0.0814 
     99 H99       -74.2685   23.7345  -79.7605 H         1 UNK         0.0814 
    100 H100      -75.8822   23.8092  -79.0685 H         1 UNK         0.0814 
    101 H101      -75.9763   25.1655  -76.9595 H         1 UNK         0.3105 
    102 H102      -76.2732   28.3229  -75.2776 H         1 UNK         0.0547 
    103 H103      -78.1615   26.4065  -76.7280 H         1 UNK         0.0837 
    104 H104      -78.5507   27.0366  -75.1364 H         1 UNK         0.0837 
    105 H105      -78.3133   28.1331  -76.4929 H         1 UNK         0.0837 
    106 H106      -76.7285   25.5692  -74.5477 H         1 UNK         0.3020 
    107 H107      -73.6079   25.0549  -72.9751 H         1 UNK         0.1245 
    108 H108      -74.9623   26.4328  -71.2862 H         1 UNK         0.0781 
    109 H109      -74.7325   24.7526  -70.9147 H         1 UNK         0.0781 
    110 H110      -76.8696   26.5716  -69.4942 H         1 UNK         0.0836 
    111 H111      -78.5284   26.3055  -69.9598 H         1 UNK         0.0836 
    112 H112      -75.9802   23.4832  -73.0926 H         1 UNK         0.3022 
    113 H113      -75.3726   21.9405  -76.2496 H         1 UNK         0.0747 
    114 H114      -75.5153   19.8916  -74.8650 H         1 UNK         0.0793 
    115 H115      -73.9607   20.6695  -74.6234 H         1 UNK         0.0793 
    116 H116      -75.2116   20.8223  -73.3973 H         1 UNK         0.0793 
    117 H117      -77.4314   21.5072  -74.3566 H         1 UNK         0.3047 
    118 H118      -79.6601   22.1465  -75.2890 H         1 UNK         0.0822 
    119 H119      -78.7743   22.9773  -73.0054 H         1 UNK         0.0807 
    120 H120      -80.4213   23.4572  -73.3242 H         1 UNK         0.0807 
    121 H121      -79.1173   24.6218  -73.5295 H         1 UNK         0.0807 
    122 H122      -79.3080   24.5714  -76.6521 H         1 UNK         0.2946 
    123 H123      -80.8483   25.9067  -77.4745 H         1 UNK         0.1144 
    124 H124      -82.0052   24.1050  -78.7448 H         1 UNK         0.0793 
    125 H125      -82.9103   25.6069  -78.8500 H         1 UNK         0.0793 
    126 H126      -83.4601   24.3186  -77.7800 H         1 UNK         0.0793 
    127 H127      -83.3326   25.9985  -75.7999 H         1 UNK         0.2896 
@<TRIPOS>BOND
     1    1    2 1    
     2    1   67 1    
     3    1   68 1    
     4    1   69 1    
     5    2    3 2    
     6    2    4 am   BACKBONE|DICT|INTERRES
     7    4    5 1    
     8    4   70 1    
     9    5    6 1    
    10    5   65 1    
    11    5   71 1    
    12    6    7 1    
    13    6   72 1    
    14    6   73 1    
    15    7    8 1    
    16    8    9 1    
    17    8   74 1    
    18    8   75 1    
    19    9   10 ar   
    20    9   14 ar   
    21   10   11 ar   
    22   10   76 1    
    23   11   12 ar   
    24   11   48 1    
    25   12   13 ar   
    26   12   77 1    
    27   13   14 ar   
    28   13   15 1    
    29   14   78 1    
    30   15   16 1    
    31   15   79 1    
    32   15   80 1    
    33   16   17 1    
    34   17   18 1    
    35   17   81 1    
    36   17   82 1    
    37   18   19 1    
    38   18   22 1    
    39   18   83 1    
    40   19   20 am   BACKBONE|DICT|INTERRES
    41   19   21 2    
    42   20   84 1    
    43   20   85 1    
    44   22   23 am   BACKBONE|DICT|INTERRES
    45   22   86 1    
    46   23   24 2    
    47   23   25 1    
    48   25   26 1    
    49   25   27 1    
    50   25   87 1    
    51   26   88 1    
    52   26   89 1    
    53   26   90 1    
    54   27   28 am   BACKBONE|DICT|INTERRES
    55   27   91 1    
    56   28   29 2    
    57   28   30 1    
    58   30   31 1    
    59   30   32 1    
    60   30   92 1    
    61   31   93 1    
    62   31   94 1    
    63   31   95 1    
    64   32   33 am   BACKBONE|DICT|INTERRES
    65   32   96 1    
    66   33   34 2    
    67   33   35 1    
    68   35   36 1    
    69   35   37 1    
    70   35   97 1    
    71   36   98 1    
    72   36   99 1    
    73   36  100 1    
    74   37   38 am   BACKBONE|DICT|INTERRES
    75   37  101 1    
    76   38   39 2    
    77   38   40 1    
    78   40   41 1    
    79   40   42 1    
    80   40  102 1    
    81   41  103 1    
    82   41  104 1    
    83   41  105 1    
    84   42   43 am   BACKBONE|DICT|INTERRES
    85   42  106 1    
    86   43   44 2    
    87   43   45 1    
    88   45   46 1    
    89   45   49 1    
    90   45  107 1    
    91   46   47 1    
    92   46  108 1    
    93   46  109 1    
    94   47   48 1    
    95   48  110 1    
    96   48  111 1    
    97   49   50 am   BACKBONE|DICT|INTERRES
    98   49  112 1    
    99   50   51 2    
   100   50   52 1    
   101   52   53 1    
   102   52   54 1    
   103   52  113 1    
   104   53  114 1    
   105   53  115 1    
   106   53  116 1    
   107   54   55 am   BACKBONE|DICT|INTERRES
   108   54  117 1    
   109   55   56 2    
   110   55   57 1    
   111   57   58 1    
   112   57   59 1    
   113   57  118 1    
   114   58  119 1    
   115   58  120 1    
   116   58  121 1    
   117   59   60 am   BACKBONE|DICT|INTERRES
   118   59  122 1    
   119   60   61 2    
   120   60   62 1    
   121   62   63 1    
   122   62   64 1    
   123   62  123 1    
   124   63  124 1    
   125   63  125 1    
   126   63  126 1    
   127   64   65 am   BACKBONE|DICT|INTERRES
   128   64  127 1    
   129   65   66 2    
@<TRIPOS>SUBSTRUCTURE
     1 UNK         1 GROUP             0       ****    0 ROOT    
