@<TRIPOS>MOLECULE
3R135
127   129    1
SMALL
USER_CHARGES


@<TRIPOS>ATOM
      1 CA        -83.5899   25.4221  -68.9525 C.3       0 UNK        -0.1998 
      2 C         -83.6746   26.5494  -69.9706 C.2       0 UNK         0.4909 
      3 O         -84.0927   27.6562  -69.6280 O.2       0 UNK        -0.5240 
      4 N         -83.2859   26.2761  -71.2186 N.am      1 UNK        -0.4739 
      5 CA        -83.2933   27.2123  -72.3413 C.3       1 UNK         0.0864 
      6 C6        -82.1321   28.2461  -72.2676 C.3       11 UNK        -0.0881 
      7 S7        -80.4758   27.4949  -72.4133 S.3       11 UNK        -0.2682 
      8 C8        -79.3942   28.9435  -72.2848 C.3       11 UNK         0.0289 
      9 C9        -78.0007   28.5784  -72.7652 C.ar      11 UNK        -0.0687 
     10 C10       -77.0916   27.9649  -71.8986 C.ar      11 UNK        -0.0823 
     11 C11       -75.8225   27.5944  -72.3517 C.ar      11 UNK        -0.0830 
     12 C12       -75.4746   27.8351  -73.6849 C.ar      11 UNK        -0.1021 
     13 C13       -76.3783   28.4367  -74.5663 C.ar      11 UNK        -0.0753 
     14 C14       -77.6348   28.8204  -74.0918 C.ar      11 UNK        -0.0933 
     15 C15       -76.0432   28.6246  -76.0433 C.3       11 UNK         0.0166 
     16 S16       -74.3166   29.1078  -76.3685 S.3       11 UNK        -0.2615 
     17 C17       -74.2843   30.8491  -75.8092 C.3       11 UNK        -0.0865 
     18 CA        -73.1493   31.1621  -74.7950 C.3       10 UNK         0.0862 
     19 C         -73.5397   30.8034  -73.3297 C.2       10 UNK         0.5551 
     20 N         -72.8538   29.8890  -72.6529 N.am      10 UNK        -0.7319 
     21 O         -74.4682   31.3967  -72.7867 O.2       10 UNK        -0.5018 
     22 N         -71.8624   30.6186  -75.2510 N.am      10 UNK        -0.4509 
     23 C         -70.6554   30.9895  -74.8121 C.2       10 UNK         0.4899 
     24 O         -70.4665   31.9488  -74.0624 O.2       10 UNK        -0.4839 
     25 CA        -69.4628   30.1362  -75.2937 C.3       9 UNK         0.0222 
     26 CB        -68.2546   30.2250  -74.3375 C.3       9 UNK        -0.1966 
     27 N         -69.7985   28.7277  -75.5594 N.am      9 UNK        -0.4218 
     28 C         -70.3220   27.8317  -74.7100 C.2       9 UNK         0.5020 
     29 O         -70.6932   28.1058  -73.5669 O.2       9 UNK        -0.5274 
     30 CA        -70.4677   26.3925  -75.2461 C.3       8 UNK         0.0270 
     31 CB        -70.7279   25.3760  -74.1203 C.3       8 UNK        -0.1976 
     32 N         -71.5200   26.2685  -76.2617 N.am      8 UNK        -0.4313 
     33 C         -71.4277   26.7262  -77.5199 C.2       8 UNK         0.5041 
     34 O         -70.4387   27.3330  -77.9376 O.2       8 UNK        -0.5577 
     35 CA        -72.6036   26.4644  -78.4781 C.3       7 UNK         0.0284 
     36 CB        -72.1288   26.1755  -79.9168 C.3       7 UNK        -0.1958 
     37 N         -73.4664   25.3750  -78.0183 N.am      7 UNK        -0.4454 
     38 C         -74.7784   25.2772  -78.2583 C.2       7 UNK         0.5089 
     39 O         -75.4343   26.1315  -78.8552 O.2       7 UNK        -0.5125 
     40 CA        -75.4797   23.9976  -77.7701 C.3       6 UNK         0.0408 
     41 CB        -74.8055   22.7188  -78.3100 C.3       6 UNK        -0.1791 
     42 N         -75.6613   23.9393  -76.3156 N.am      6 UNK        -0.4762 
     43 C         -74.7242   23.8892  -75.3544 C.2       6 UNK         0.5007 
     44 O         -73.5137   23.9037  -75.5905 O.2       6 UNK        -0.5032 
     45 CA        -75.2039   23.8410  -73.8848 C.3       5 UNK         0.0783 
     46 C46       -74.2716   24.6794  -72.9667 C.3       11 UNK        -0.0857 
     47 S47       -74.9686   25.1386  -71.3416 S.3       11 UNK        -0.2512 
     48 C48       -74.8238   26.9560  -71.3941 C.3       11 UNK         0.0225 
     49 N         -76.6267   24.1934  -73.7699 N.am      5 UNK        -0.4615 
     50 C         -77.6134   23.2976  -73.6284 C.2       4 UNK         0.5053 
     51 O         -77.4319   22.0807  -73.5766 O.2       4 UNK        -0.5105 
     52 CA        -79.0536   23.8351  -73.5521 C.3       4 UNK         0.0263 
     53 CB        -79.4421   24.1053  -72.0898 C.3       4 UNK        -0.1981 
     54 N         -79.3109   25.0349  -74.3566 N.am      4 UNK        -0.4224 
     55 C         -79.1225   25.1388  -75.6800 C.2       3 UNK         0.4895 
     56 O         -78.6311   24.2467  -76.3735 O.2       3 UNK        -0.5091 
     57 CA        -79.5647   26.4656  -76.3230 C.3       3 UNK         0.0250 
     58 CB        -79.1901   26.5678  -77.8171 C.3       3 UNK        -0.1996 
     59 N         -80.9927   26.7430  -76.1155 N.am      3 UNK        -0.4254 
     60 C         -82.0386   26.0053  -76.5249 C.2       2 UNK         0.5004 
     61 O         -81.9403   24.9587  -77.1678 O.2       2 UNK        -0.5226 
     62 CA        -83.4349   26.5515  -76.1534 C.3       2 UNK         0.0269 
     63 CB        -84.5712   25.5363  -76.4079 C.3       2 UNK        -0.1926 
     64 N         -83.4987   27.0804  -74.7816 N.am      2 UNK        -0.4687 
     65 C         -83.2840   26.3944  -73.6482 C.2       1 UNK         0.5165 
     66 O         -83.0532   25.1815  -73.6069 O.2       1 UNK        -0.5079 
     67 H67       -82.9336   25.7080  -68.1310 H         1 UNK         0.0900 
     68 H68       -83.2006   24.5042  -69.3932 H         1 UNK         0.0900 
     69 H69       -84.5774   25.2103  -68.5432 H         1 UNK         0.0900 
     70 H70       -82.9919   25.3432  -71.4832 H         1 UNK         0.2959 
     71 H71       -84.2428   27.7522  -72.3167 H         1 UNK         0.1079 
     72 H72       -82.1811   28.7962  -71.3266 H         1 UNK         0.0837 
     73 H73       -82.2435   28.9974  -73.0510 H         1 UNK         0.0837 
     74 H74       -79.7987   29.7632  -72.8803 H         1 UNK         0.0685 
     75 H75       -79.3650   29.2896  -71.2509 H         1 UNK         0.0685 
     76 H76       -77.3757   27.7706  -70.8733 H         1 UNK         0.1434 
     77 H77       -74.4916   27.5662  -74.0407 H         1 UNK         0.1329 
     78 H78       -78.3435   29.2861  -74.7628 H         1 UNK         0.1335 
     79 H79       -76.2339   27.6803  -76.5546 H         1 UNK         0.0680 
     80 H80       -76.7050   29.3610  -76.5021 H         1 UNK         0.0680 
     81 H81       -75.2585   31.1364  -75.4085 H         1 UNK         0.1032 
     82 H82       -74.1473   31.4681  -76.6968 H         1 UNK         0.1032 
     83 H83       -73.0357   32.2479  -74.7891 H         1 UNK         0.0461 
     84 H84       -73.1139   29.6948  -71.7008 H         1 UNK         0.3453 
     85 H85       -72.0801   29.3867  -73.0773 H         1 UNK         0.3453 
     86 H86       -71.9288   29.8102  -75.8519 H         1 UNK         0.2984 
     87 H87       -69.1581   30.5598  -76.2515 H         1 UNK         0.0554 
     88 H88       -67.4126   29.6388  -74.7052 H         1 UNK         0.0847 
     89 H89       -68.5044   29.8640  -73.3391 H         1 UNK         0.0847 
     90 H90       -67.9082   31.2541  -74.2341 H         1 UNK         0.0847 
     91 H91       -69.6480   28.4023  -76.5124 H         1 UNK         0.3141 
     92 H92       -69.5164   26.1220  -75.7097 H         1 UNK         0.0743 
     93 H93       -71.6298   25.6185  -73.5613 H         1 UNK         0.0784 
     94 H94       -70.8321   24.3628  -74.5090 H         1 UNK         0.0784 
     95 H95       -69.9020   25.3678  -73.4079 H         1 UNK         0.0784 
     96 H96       -72.3627   25.7862  -75.9763 H         1 UNK         0.3213 
     97 H97       -73.1831   27.3893  -78.4949 H         1 UNK         0.0855 
     98 H98       -71.5208   25.2714  -79.9631 H         1 UNK         0.0814 
     99 H99       -71.5263   26.9966  -80.3073 H         1 UNK         0.0814 
    100 H100      -72.9715   26.0486  -80.5966 H         1 UNK         0.0814 
    101 H101      -73.0361   24.6425  -77.4631 H         1 UNK         0.3105 
    102 H102      -76.4877   24.0228  -78.1876 H         1 UNK         0.0547 
    103 H103      -74.7054   22.7615  -79.3954 H         1 UNK         0.0837 
    104 H104      -73.8079   22.5642  -77.8990 H         1 UNK         0.0837 
    105 H105      -75.3993   21.8352  -78.0766 H         1 UNK         0.0837 
    106 H106      -76.6340   23.9559  -76.0234 H         1 UNK         0.3020 
    107 H107      -75.0731   22.8007  -73.5786 H         1 UNK         0.1245 
    108 H108      -73.9391   25.5809  -73.4740 H         1 UNK         0.0781 
    109 H109      -73.3575   24.1143  -72.7763 H         1 UNK         0.0781 
    110 H110      -73.8041   27.2327  -71.6673 H         1 UNK         0.0836 
    111 H111      -74.9797   27.3473  -70.3877 H         1 UNK         0.0836 
    112 H112      -76.8505   25.1785  -73.7760 H         1 UNK         0.3022 
    113 H113      -79.7097   23.0514  -73.9363 H         1 UNK         0.0747 
    114 H114      -80.4937   24.3799  -72.0028 H         1 UNK         0.0793 
    115 H115      -79.2883   23.2186  -71.4732 H         1 UNK         0.0793 
    116 H116      -78.8458   24.9104  -71.6574 H         1 UNK         0.0793 
    117 H117      -79.7200   25.8191  -73.8638 H         1 UNK         0.3047 
    118 H118      -79.0202   27.2511  -75.8039 H         1 UNK         0.0822 
    119 H119      -79.4614   27.5396  -78.2289 H         1 UNK         0.0807 
    120 H120      -79.6824   25.8001  -78.4147 H         1 UNK         0.0807 
    121 H121      -78.1153   26.4455  -77.9577 H         1 UNK         0.0807 
    122 H122      -81.1990   27.5707  -75.5744 H         1 UNK         0.2946 
    123 H123      -83.6056   27.3991  -76.8196 H         1 UNK         0.1144 
    124 H124      -84.6095   25.2493  -77.4595 H         1 UNK         0.0793 
    125 H125      -85.5440   25.9568  -76.1534 H         1 UNK         0.0793 
    126 H126      -84.4384   24.6221  -75.8287 H         1 UNK         0.0793 
    127 H127      -83.6837   28.0720  -74.7102 H         1 UNK         0.2896 
@<TRIPOS>BOND
     1    1    2 1    
     2    1   67 1    
     3    1   68 1    
     4    1   69 1    
     5    2    3 2    
     6    2    4 am   BACKBONE|DICT|INTERRES
     7    4    5 1    
     8    4   70 1    
     9    5    6 1    
    10    5   65 1    
    11    5   71 1    
    12    6    7 1    
    13    6   72 1    
    14    6   73 1    
    15    7    8 1    
    16    8    9 1    
    17    8   74 1    
    18    8   75 1    
    19    9   10 ar   
    20    9   14 ar   
    21   10   11 ar   
    22   10   76 1    
    23   11   12 ar   
    24   11   48 1    
    25   12   13 ar   
    26   12   77 1    
    27   13   14 ar   
    28   13   15 1    
    29   14   78 1    
    30   15   16 1    
    31   15   79 1    
    32   15   80 1    
    33   16   17 1    
    34   17   18 1    
    35   17   81 1    
    36   17   82 1    
    37   18   19 1    
    38   18   22 1    
    39   18   83 1    
    40   19   20 am   BACKBONE|DICT|INTERRES
    41   19   21 2    
    42   20   84 1    
    43   20   85 1    
    44   22   23 am   BACKBONE|DICT|INTERRES
    45   22   86 1    
    46   23   24 2    
    47   23   25 1    
    48   25   26 1    
    49   25   27 1    
    50   25   87 1    
    51   26   88 1    
    52   26   89 1    
    53   26   90 1    
    54   27   28 am   BACKBONE|DICT|INTERRES
    55   27   91 1    
    56   28   29 2    
    57   28   30 1    
    58   30   31 1    
    59   30   32 1    
    60   30   92 1    
    61   31   93 1    
    62   31   94 1    
    63   31   95 1    
    64   32   33 am   BACKBONE|DICT|INTERRES
    65   32   96 1    
    66   33   34 2    
    67   33   35 1    
    68   35   36 1    
    69   35   37 1    
    70   35   97 1    
    71   36   98 1    
    72   36   99 1    
    73   36  100 1    
    74   37   38 am   BACKBONE|DICT|INTERRES
    75   37  101 1    
    76   38   39 2    
    77   38   40 1    
    78   40   41 1    
    79   40   42 1    
    80   40  102 1    
    81   41  103 1    
    82   41  104 1    
    83   41  105 1    
    84   42   43 am   BACKBONE|DICT|INTERRES
    85   42  106 1    
    86   43   44 2    
    87   43   45 1    
    88   45   46 1    
    89   45   49 1    
    90   45  107 1    
    91   46   47 1    
    92   46  108 1    
    93   46  109 1    
    94   47   48 1    
    95   48  110 1    
    96   48  111 1    
    97   49   50 am   BACKBONE|DICT|INTERRES
    98   49  112 1    
    99   50   51 2    
   100   50   52 1    
   101   52   53 1    
   102   52   54 1    
   103   52  113 1    
   104   53  114 1    
   105   53  115 1    
   106   53  116 1    
   107   54   55 am   BACKBONE|DICT|INTERRES
   108   54  117 1    
   109   55   56 2    
   110   55   57 1    
   111   57   58 1    
   112   57   59 1    
   113   57  118 1    
   114   58  119 1    
   115   58  120 1    
   116   58  121 1    
   117   59   60 am   BACKBONE|DICT|INTERRES
   118   59  122 1    
   119   60   61 2    
   120   60   62 1    
   121   62   63 1    
   122   62   64 1    
   123   62  123 1    
   124   63  124 1    
   125   63  125 1    
   126   63  126 1    
   127   64   65 am   BACKBONE|DICT|INTERRES
   128   64  127 1    
   129   65   66 2    
@<TRIPOS>SUBSTRUCTURE
     1 UNK         1 GROUP             0       ****    0 ROOT    
