@<TRIPOS>MOLECULE
3R135
127   129    1
SMALL
USER_CHARGES


@<TRIPOS>ATOM
      1 CA        -82.9149   27.2951  -74.3839 C.3       0 UNK        -0.1998 
      2 C         -81.5931   27.7614  -74.9735 C.2       0 UNK         0.4909 
      3 O         -81.4832   27.8966  -76.1927 O.2       0 UNK        -0.5240 
      4 N         -80.5893   27.9988  -74.1176 N.am      1 UNK        -0.4739 
      5 CA        -79.2269   28.4217  -74.4678 C.3       1 UNK         0.0864 
      6 C6        -78.3380   28.5567  -73.2129 C.3       11 UNK        -0.0881 
      7 S7        -78.9034   29.8688  -72.0764 S.3       11 UNK        -0.2682 
      8 C8        -78.6360   29.0989  -70.4420 C.3       11 UNK         0.0289 
      9 C9        -77.2836   28.4038  -70.3357 C.ar      11 UNK        -0.0687 
     10 C10       -77.2208   27.0322  -70.0795 C.ar      11 UNK        -0.0823 
     11 C11       -75.9921   26.3673  -70.0659 C.ar      11 UNK        -0.0830 
     12 C12       -74.8158   27.0948  -70.2748 C.ar      11 UNK        -0.1021 
     13 C13       -74.8571   28.4730  -70.5158 C.ar      11 UNK        -0.0753 
     14 C14       -76.1009   29.1175  -70.5469 C.ar      11 UNK        -0.0933 
     15 C15       -73.5519   29.2170  -70.8038 C.3       11 UNK         0.0166 
     16 S16       -73.5910   30.9949  -70.3881 S.3       11 UNK        -0.2615 
     17 C17       -72.9420   31.7734  -71.9058 C.3       11 UNK        -0.0865 
     18 CA        -74.0367   31.9832  -72.9923 C.3       10 UNK         0.0862 
     19 C         -73.7735   33.2798  -73.8078 C.2       10 UNK         0.5551 
     20 N         -74.3252   34.4053  -73.3761 N.am      10 UNK        -0.7319 
     21 O         -73.0404   33.2813  -74.7953 O.2       10 UNK        -0.5018 
     22 N         -74.1399   30.8118  -73.8750 N.am      10 UNK        -0.4509 
     23 C         -75.1554   30.5637  -74.7130 C.2       10 UNK         0.4899 
     24 O         -76.1968   31.2199  -74.7379 O.2       10 UNK        -0.4839 
     25 CA        -74.9859   29.4042  -75.7162 C.3       9 UNK         0.0222 
     26 CB        -74.8762   29.9421  -77.1519 C.3       9 UNK        -0.1966 
     27 N         -73.8294   28.5454  -75.4464 N.am      9 UNK        -0.4218 
     28 C         -73.7787   27.6192  -74.4826 C.2       9 UNK         0.5020 
     29 O         -74.7151   27.3735  -73.7262 O.2       9 UNK        -0.5274 
     30 CA        -72.4606   26.8359  -74.3721 C.3       8 UNK         0.0270 
     31 CB        -72.3304   26.0513  -73.0556 C.3       8 UNK        -0.1976 
     32 N         -72.3395   25.9142  -75.4996 N.am      8 UNK        -0.4313 
     33 C         -71.8638   26.2577  -76.7045 C.2       8 UNK         0.5041 
     34 O         -71.4352   27.3834  -76.9662 O.2       8 UNK        -0.5577 
     35 CA        -71.8820   25.1874  -77.8099 C.3       7 UNK         0.0284 
     36 CB        -70.5264   24.4665  -77.8823 C.3       7 UNK        -0.1958 
     37 N         -72.9492   24.1974  -77.6477 N.am      7 UNK        -0.4454 
     38 C         -74.2588   24.4620  -77.7538 C.2       7 UNK         0.5089 
     39 O         -74.7061   25.5740  -78.0309 O.2       7 UNK        -0.5125 
     40 CA        -75.2366   23.2949  -77.5138 C.3       6 UNK         0.0408 
     41 CB        -74.5880   21.8978  -77.6474 C.3       6 UNK        -0.1791 
     42 N         -75.9452   23.4027  -76.2324 N.am      6 UNK        -0.4762 
     43 C         -75.4022   23.4853  -75.0063 C.2       6 UNK         0.5007 
     44 O         -74.1880   23.5780  -74.8097 O.2       6 UNK        -0.5032 
     45 CA        -76.3650   23.3917  -73.8022 C.3       5 UNK         0.0783 
     46 C46       -75.8969   24.2406  -72.5911 C.3       11 UNK        -0.0857 
     47 S47       -76.8851   23.9317  -71.0891 S.3       11 UNK        -0.2512 
     48 C48       -75.9412   24.8620  -69.8347 C.3       11 UNK         0.0225 
     49 N         -77.7474   23.7046  -74.1877 N.am      5 UNK        -0.4615 
     50 C         -78.7816   22.8627  -74.0709 C.2       4 UNK         0.5053 
     51 O         -78.6704   21.6712  -73.7813 O.2       4 UNK        -0.5105 
     52 CA        -80.1812   23.4489  -74.2965 C.3       4 UNK         0.0263 
     53 CB        -80.5646   24.3865  -73.1373 C.3       4 UNK        -0.1981 
     54 N         -80.2647   24.1787  -75.5619 N.am      4 UNK        -0.4224 
     55 C         -80.8651   23.7194  -76.6700 C.2       3 UNK         0.4895 
     56 O         -81.3796   22.6035  -76.7530 O.2       3 UNK        -0.5091 
     57 CA        -80.9386   24.6539  -77.8934 C.3       3 UNK         0.0250 
     58 CB        -82.3773   25.1554  -78.1026 C.3       3 UNK        -0.1996 
     59 N         -80.0400   25.8059  -77.7915 N.am      3 UNK        -0.4254 
     60 C         -78.7373   25.7675  -78.1069 C.2       2 UNK         0.5004 
     61 O         -78.1884   24.7798  -78.5930 O.2       2 UNK        -0.5226 
     62 CA        -77.8957   27.0234  -77.8067 C.3       2 UNK         0.0269 
     63 CB        -77.7403   27.8817  -79.0717 C.3       2 UNK        -0.1926 
     64 N         -78.4218   27.8538  -76.7188 N.am      2 UNK        -0.4687 
     65 C         -78.5792   27.4351  -75.4561 C.2       1 UNK         0.5165 
     66 O         -78.2917   26.2991  -75.0738 O.2       1 UNK        -0.5079 
     67 H67       -82.8870   27.2618  -73.2950 H         1 UNK         0.0900 
     68 H68       -83.1558   26.2969  -74.7482 H         1 UNK         0.0900 
     69 H69       -83.7167   27.9698  -74.6822 H         1 UNK         0.0900 
     70 H70       -80.7523   27.8818  -73.1281 H         1 UNK         0.2959 
     71 H71       -79.2950   29.4004  -74.9475 H         1 UNK         0.1079 
     72 H72       -78.3012   27.6005  -72.6876 H         1 UNK         0.0837 
     73 H73       -77.3059   28.7855  -73.4857 H         1 UNK         0.0837 
     74 H74       -78.7073   29.8668  -69.6707 H         1 UNK         0.0685 
     75 H75       -79.4483   28.3952  -70.2537 H         1 UNK         0.0685 
     76 H76       -78.1314   26.4688  -69.9277 H         1 UNK         0.1434 
     77 H77       -73.8641   26.5821  -70.2705 H         1 UNK         0.1329 
     78 H78       -76.1645   30.1722  -70.7727 H         1 UNK         0.1335 
     79 H79       -72.7330   28.7598  -70.2465 H         1 UNK         0.0680 
     80 H80       -73.3151   29.0860  -71.8585 H         1 UNK         0.0680 
     81 H81       -72.0924   31.2066  -72.2905 H         1 UNK         0.1032 
     82 H82       -72.5230   32.7297  -71.5846 H         1 UNK         0.1032 
     83 H83       -75.0030   32.1054  -72.4975 H         1 UNK         0.0461 
     84 H84       -74.1537   35.2611  -73.8807 H         1 UNK         0.3453 
     85 H85       -74.9170   34.4156  -72.5596 H         1 UNK         0.3453 
     86 H86       -73.3126   30.2435  -73.9608 H         1 UNK         0.2984 
     87 H87       -75.8854   28.7897  -75.6562 H         1 UNK         0.0554 
     88 H88       -74.8060   29.1291  -77.8752 H         1 UNK         0.0847 
     89 H89       -74.0012   30.5813  -77.2775 H         1 UNK         0.0847 
     90 H90       -75.7531   30.5349  -77.4158 H         1 UNK         0.0847 
     91 H91       -73.0282   28.6315  -76.0622 H         1 UNK         0.3141 
     92 H92       -71.6410   27.5575  -74.3987 H         1 UNK         0.0743 
     93 H93       -72.3924   26.7197  -72.1972 H         1 UNK         0.0784 
     94 H94       -73.1170   25.3073  -72.9500 H         1 UNK         0.0784 
     95 H95       -71.3724   25.5348  -72.9954 H         1 UNK         0.0784 
     96 H96       -72.7629   24.9987  -75.3799 H         1 UNK         0.3213 
     97 H97       -72.0463   25.7035  -78.7585 H         1 UNK         0.0855 
     98 H98       -69.7139   25.1795  -78.0297 H         1 UNK         0.0814 
     99 H99       -70.4930   23.7644  -78.7156 H         1 UNK         0.0814 
    100 H100      -70.3123   23.9141  -76.9664 H         1 UNK         0.0814 
    101 H101      -72.6706   23.2606  -77.3945 H         1 UNK         0.3105 
    102 H102      -75.9928   23.3704  -78.2952 H         1 UNK         0.0547 
    103 H103      -74.0753   21.7903  -78.6044 H         1 UNK         0.0837 
    104 H104      -73.8656   21.6941  -76.8563 H         1 UNK         0.0837 
    105 H105      -75.3445   21.1142  -77.6055 H         1 UNK         0.0837 
    106 H106      -76.9538   23.3771  -76.2903 H         1 UNK         0.3020 
    107 H107      -76.3007   22.3456  -73.4946 H         1 UNK         0.1245 
    108 H108      -75.9436   25.3041  -72.8279 H         1 UNK         0.0781 
    109 H109      -74.8601   24.0146  -72.3414 H         1 UNK         0.0781 
    110 H110      -74.9116   24.5009  -69.8213 H         1 UNK         0.0836 
    111 H111      -76.3552   24.6431  -68.8496 H         1 UNK         0.0836 
    112 H112      -77.9217   24.6745  -74.4498 H         1 UNK         0.3022 
    113 H113      -80.8906   22.6184  -74.2926 H         1 UNK         0.0747 
    114 H114      -81.5883   24.7449  -73.2419 H         1 UNK         0.0793 
    115 H115      -80.5002   23.8673  -72.1800 H         1 UNK         0.0793 
    116 H116      -79.9083   25.2554  -73.0777 H         1 UNK         0.0793 
    117 H117      -79.7956   25.0768  -75.5931 H         1 UNK         0.3047 
    118 H118      -80.6611   24.0631  -78.7692 H         1 UNK         0.0822 
    119 H119      -82.4515   25.7922  -78.9843 H         1 UNK         0.0807 
    120 H120      -82.7374   25.7256  -77.2462 H         1 UNK         0.0807 
    121 H121      -83.0644   24.3207  -78.2485 H         1 UNK         0.0807 
    122 H122      -80.4266   26.6526  -77.3826 H         1 UNK         0.2946 
    123 H123      -76.9082   26.6794  -77.4963 H         1 UNK         0.1144 
    124 H124      -77.0854   28.7349  -78.8977 H         1 UNK         0.0793 
    125 H125      -78.7009   28.2600  -79.4235 H         1 UNK         0.0793 
    126 H126      -77.3006   27.2996  -79.8830 H         1 UNK         0.0793 
    127 H127      -78.7349   28.7808  -76.9696 H         1 UNK         0.2896 
@<TRIPOS>BOND
     1    1    2 1    
     2    1   67 1    
     3    1   68 1    
     4    1   69 1    
     5    2    3 2    
     6    2    4 am   BACKBONE|DICT|INTERRES
     7    4    5 1    
     8    4   70 1    
     9    5    6 1    
    10    5   65 1    
    11    5   71 1    
    12    6    7 1    
    13    6   72 1    
    14    6   73 1    
    15    7    8 1    
    16    8    9 1    
    17    8   74 1    
    18    8   75 1    
    19    9   10 ar   
    20    9   14 ar   
    21   10   11 ar   
    22   10   76 1    
    23   11   12 ar   
    24   11   48 1    
    25   12   13 ar   
    26   12   77 1    
    27   13   14 ar   
    28   13   15 1    
    29   14   78 1    
    30   15   16 1    
    31   15   79 1    
    32   15   80 1    
    33   16   17 1    
    34   17   18 1    
    35   17   81 1    
    36   17   82 1    
    37   18   19 1    
    38   18   22 1    
    39   18   83 1    
    40   19   20 am   BACKBONE|DICT|INTERRES
    41   19   21 2    
    42   20   84 1    
    43   20   85 1    
    44   22   23 am   BACKBONE|DICT|INTERRES
    45   22   86 1    
    46   23   24 2    
    47   23   25 1    
    48   25   26 1    
    49   25   27 1    
    50   25   87 1    
    51   26   88 1    
    52   26   89 1    
    53   26   90 1    
    54   27   28 am   BACKBONE|DICT|INTERRES
    55   27   91 1    
    56   28   29 2    
    57   28   30 1    
    58   30   31 1    
    59   30   32 1    
    60   30   92 1    
    61   31   93 1    
    62   31   94 1    
    63   31   95 1    
    64   32   33 am   BACKBONE|DICT|INTERRES
    65   32   96 1    
    66   33   34 2    
    67   33   35 1    
    68   35   36 1    
    69   35   37 1    
    70   35   97 1    
    71   36   98 1    
    72   36   99 1    
    73   36  100 1    
    74   37   38 am   BACKBONE|DICT|INTERRES
    75   37  101 1    
    76   38   39 2    
    77   38   40 1    
    78   40   41 1    
    79   40   42 1    
    80   40  102 1    
    81   41  103 1    
    82   41  104 1    
    83   41  105 1    
    84   42   43 am   BACKBONE|DICT|INTERRES
    85   42  106 1    
    86   43   44 2    
    87   43   45 1    
    88   45   46 1    
    89   45   49 1    
    90   45  107 1    
    91   46   47 1    
    92   46  108 1    
    93   46  109 1    
    94   47   48 1    
    95   48  110 1    
    96   48  111 1    
    97   49   50 am   BACKBONE|DICT|INTERRES
    98   49  112 1    
    99   50   51 2    
   100   50   52 1    
   101   52   53 1    
   102   52   54 1    
   103   52  113 1    
   104   53  114 1    
   105   53  115 1    
   106   53  116 1    
   107   54   55 am   BACKBONE|DICT|INTERRES
   108   54  117 1    
   109   55   56 2    
   110   55   57 1    
   111   57   58 1    
   112   57   59 1    
   113   57  118 1    
   114   58  119 1    
   115   58  120 1    
   116   58  121 1    
   117   59   60 am   BACKBONE|DICT|INTERRES
   118   59  122 1    
   119   60   61 2    
   120   60   62 1    
   121   62   63 1    
   122   62   64 1    
   123   62  123 1    
   124   63  124 1    
   125   63  125 1    
   126   63  126 1    
   127   64   65 am   BACKBONE|DICT|INTERRES
   128   64  127 1    
   129   65   66 2    
@<TRIPOS>SUBSTRUCTURE
     1 UNK         1 GROUP             0       ****    0 ROOT    
