@<TRIPOS>MOLECULE
3R135
127   129    1
SMALL
USER_CHARGES


@<TRIPOS>ATOM
      1 CA        -84.8865   26.0675  -71.7605 C.3       0 UNK        -0.1998 
      2 C         -83.6699   26.8501  -71.2739 C.2       0 UNK         0.4909 
      3 O         -83.3718   26.8233  -70.0818 O.2       0 UNK        -0.5240 
      4 N         -82.9374   27.5632  -72.1416 N.am      1 UNK        -0.4739 
      5 CA        -83.1201   27.6611  -73.5976 C.3       1 UNK         0.0864 
      6 C6        -82.4601   28.9449  -74.1679 C.3       11 UNK        -0.0881 
      7 S7        -80.6446   29.0104  -73.9705 S.3       11 UNK        -0.2682 
      8 C8        -80.4733   30.0231  -72.4688 C.3       11 UNK         0.0289 
      9 C9        -79.0796   29.8710  -71.8833 C.ar      11 UNK        -0.0687 
     10 C10       -78.7115   28.6701  -71.2676 C.ar      11 UNK        -0.0823 
     11 C11       -77.4204   28.5006  -70.7615 C.ar      11 UNK        -0.0830 
     12 C12       -76.5073   29.5535  -70.8413 C.ar      11 UNK        -0.1021 
     13 C13       -76.8569   30.7497  -71.4719 C.ar      11 UNK        -0.0753 
     14 C14       -78.1487   30.9097  -71.9820 C.ar      11 UNK        -0.0933 
     15 C15       -75.8173   31.8458  -71.6409 C.3       11 UNK         0.0166 
     16 S16       -75.2107   31.9547  -73.3568 S.3       11 UNK        -0.2615 
     17 C17       -74.5671   30.2750  -73.6945 C.3       11 UNK        -0.0865 
     18 CA        -73.0167   30.1811  -73.6036 C.3       10 UNK         0.0862 
     19 C         -72.5210   29.5418  -72.2712 C.2       10 UNK         0.5551 
     20 N         -71.6474   28.5404  -72.2911 N.am      10 UNK        -0.7319 
     21 O         -72.9162   29.9763  -71.1932 O.2       10 UNK        -0.5018 
     22 N         -72.4658   29.5337  -74.8019 N.am      10 UNK        -0.4509 
     23 C         -71.3237   29.8856  -75.4039 C.2       10 UNK         0.4899 
     24 O         -70.6256   30.8369  -75.0484 O.2       10 UNK        -0.4839 
     25 CA        -70.8963   29.0328  -76.6123 C.3       9 UNK         0.0222 
     26 CB        -69.4044   29.2016  -76.9720 C.3       9 UNK        -0.1966 
     27 N         -71.2420   27.6134  -76.4761 N.am      9 UNK        -0.4218 
     28 C         -70.8038   26.7477  -75.5479 C.2       9 UNK         0.5020 
     29 O         -70.0742   27.0774  -74.6112 O.2       9 UNK        -0.5274 
     30 CA        -71.2525   25.2728  -75.6589 C.3       8 UNK         0.0270 
     31 CB        -71.6542   24.7055  -74.2852 C.3       8 UNK        -0.1976 
     32 N         -72.3510   25.0561  -76.6059 N.am      8 UNK        -0.4313 
     33 C         -72.2387   25.0169  -77.9408 C.2       8 UNK         0.5041 
     34 O         -71.1629   25.0635  -78.5370 O.2       8 UNK        -0.5577 
     35 CA        -73.5487   24.9930  -78.7495 C.3       7 UNK         0.0284 
     36 CB        -73.9848   23.5468  -79.0296 C.3       7 UNK        -0.1958 
     37 N         -74.6437   25.7263  -78.1014 N.am      7 UNK        -0.4454 
     38 C         -74.6393   27.0427  -77.8397 C.2       7 UNK         0.5089 
     39 O         -73.7227   27.7985  -78.1617 O.2       7 UNK        -0.5125 
     40 CA        -75.8210   27.5979  -77.0244 C.3       6 UNK         0.0408 
     41 CB        -77.0547   27.8244  -77.9113 C.3       6 UNK        -0.1791 
     42 N         -76.1655   26.7297  -75.8958 N.am      6 UNK        -0.4762 
     43 C         -75.3705   26.5172  -74.8353 C.2       6 UNK         0.5007 
     44 O         -74.3030   27.1066  -74.6597 O.2       6 UNK        -0.5032 
     45 CA        -75.8096   25.4126  -73.8512 C.3       5 UNK         0.0783 
     46 C46       -76.7115   25.9522  -72.7105 C.3       11 UNK        -0.0857 
     47 S47       -75.7392   26.3544  -71.2209 S.3       11 UNK        -0.2512 
     48 C48       -76.9882   27.1676  -70.1723 C.3       11 UNK         0.0225 
     49 N         -76.4377   24.2945  -74.5610 N.am      5 UNK        -0.4615 
     50 C         -75.7557   23.3851  -75.2717 C.2       4 UNK         0.5053 
     51 O         -74.5315   23.3950  -75.3875 O.2       4 UNK        -0.5105 
     52 CA        -76.5676   22.3001  -76.0017 C.3       4 UNK         0.0263 
     53 CB        -76.7865   21.0874  -75.0838 C.3       4 UNK        -0.1981 
     54 N         -77.8608   22.7787  -76.4929 N.am      4 UNK        -0.4224 
     55 C         -78.0197   23.7504  -77.4027 C.2       3 UNK         0.4895 
     56 O         -77.0853   24.2972  -77.9859 O.2       3 UNK        -0.5091 
     57 CA        -79.4554   24.2340  -77.6694 C.3       3 UNK         0.0250 
     58 CB        -80.0453   23.5138  -78.8919 C.3       3 UNK        -0.1996 
     59 N         -80.3605   24.0781  -76.5241 N.am      3 UNK        -0.4254 
     60 C         -80.1929   24.6591  -75.3276 C.2       2 UNK         0.5004 
     61 O         -79.2259   25.3676  -75.0345 O.2       2 UNK        -0.5226 
     62 CA        -81.2493   24.3446  -74.2586 C.3       2 UNK         0.0269 
     63 CB        -80.6340   23.5107  -73.1222 C.3       2 UNK        -0.1926 
     64 N         -81.8134   25.5720  -73.7020 N.am      2 UNK        -0.4687 
     65 C         -82.6579   26.3900  -74.3473 C.2       1 UNK         0.5165 
     66 O         -83.0965   26.1613  -75.4754 O.2       1 UNK        -0.5079 
     67 H67       -84.5954   25.2777  -72.4518 H         1 UNK         0.0900 
     68 H68       -85.6046   26.7231  -72.2517 H         1 UNK         0.0900 
     69 H69       -85.3958   25.5966  -70.9198 H         1 UNK         0.0900 
     70 H70       -82.1414   28.0694  -71.7844 H         1 UNK         0.2959 
     71 H71       -84.1896   27.7531  -73.7956 H         1 UNK         0.1079 
     72 H72       -82.6844   29.0378  -75.2324 H         1 UNK         0.0837 
     73 H73       -82.9040   29.8273  -73.7040 H         1 UNK         0.0837 
     74 H74       -80.6844   31.0655  -72.7129 H         1 UNK         0.0685 
     75 H75       -81.2086   29.7255  -71.7211 H         1 UNK         0.0685 
     76 H76       -79.4219   27.8564  -71.2159 H         1 UNK         0.1434 
     77 H77       -75.5030   29.4181  -70.4622 H         1 UNK         0.1329 
     78 H78       -78.4166   31.8318  -72.4795 H         1 UNK         0.1335 
     79 H79       -76.2540   32.8049  -71.3593 H         1 UNK         0.0680 
     80 H80       -74.9722   31.6881  -70.9696 H         1 UNK         0.0680 
     81 H81       -74.9021   30.0361  -74.7048 H         1 UNK         0.1032 
     82 H82       -75.0529   29.5225  -73.0740 H         1 UNK         0.1032 
     83 H83       -72.6258   31.1997  -73.5783 H         1 UNK         0.0461 
     84 H84       -71.3346   28.1468  -71.4186 H         1 UNK         0.3453 
     85 H85       -71.2794   28.1859  -73.1643 H         1 UNK         0.3453 
     86 H86       -72.9514   28.6967  -75.1053 H         1 UNK         0.2984 
     87 H87       -71.4788   29.4014  -77.4576 H         1 UNK         0.0554 
     88 H88       -69.1351   28.6010  -77.8407 H         1 UNK         0.0847 
     89 H89       -68.7534   28.9099  -76.1471 H         1 UNK         0.0847 
     90 H90       -69.1746   30.2398  -77.2148 H         1 UNK         0.0847 
     91 H91       -71.8978   27.2723  -77.1695 H         1 UNK         0.3141 
     92 H92       -70.3862   24.7089  -76.0104 H         1 UNK         0.0743 
     93 H93       -72.4763   25.2677  -73.8427 H         1 UNK         0.0784 
     94 H94       -71.9606   23.6619  -74.3592 H         1 UNK         0.0784 
     95 H95       -70.8201   24.7450  -73.5835 H         1 UNK         0.0784 
     96 H96       -73.2730   24.9361  -76.2021 H         1 UNK         0.3213 
     97 H97       -73.3518   25.4805  -79.7067 H         1 UNK         0.0855 
     98 H98       -74.1826   23.0003  -78.1079 H         1 UNK         0.0814 
     99 H99       -73.2078   23.0037  -79.5692 H         1 UNK         0.0814 
    100 H100      -74.8874   23.5139  -79.6402 H         1 UNK         0.0814 
    101 H101      -75.4781   25.1897  -77.8702 H         1 UNK         0.3105 
    102 H102      -75.5194   28.5661  -76.6199 H         1 UNK         0.0547 
    103 H103      -76.8269   28.5201  -78.7200 H         1 UNK         0.0837 
    104 H104      -77.4057   26.9004  -78.3698 H         1 UNK         0.0837 
    105 H105      -77.8804   28.2506  -77.3410 H         1 UNK         0.0837 
    106 H106      -77.0286   26.2060  -75.9617 H         1 UNK         0.3020 
    107 H107      -74.8932   25.0181  -73.4056 H         1 UNK         0.1245 
    108 H108      -77.4445   25.2011  -72.4115 H         1 UNK         0.0781 
    109 H109      -77.2943   26.8184  -73.0308 H         1 UNK         0.0781 
    110 H110      -76.5661   27.3334  -69.1801 H         1 UNK         0.0836 
    111 H111      -77.8402   26.4993  -70.0377 H         1 UNK         0.0836 
    112 H112      -77.4505   24.2834  -74.5739 H         1 UNK         0.3022 
    113 H113      -75.9846   21.9740  -76.8651 H         1 UNK         0.0747 
    114 H114      -77.2870   20.2750  -75.6112 H         1 UNK         0.0793 
    115 H115      -75.8344   20.6970  -74.7211 H         1 UNK         0.0793 
    116 H116      -77.3877   21.3432  -74.2103 H         1 UNK         0.0793 
    117 H117      -78.6867   22.3778  -76.0738 H         1 UNK         0.3047 
    118 H118      -79.3980   25.3008  -77.8957 H         1 UNK         0.0822 
    119 H119      -81.0233   23.9162  -79.1567 H         1 UNK         0.0807 
    120 H120      -80.1572   22.4431  -78.7165 H         1 UNK         0.0807 
    121 H121      -79.4012   23.6354  -79.7643 H         1 UNK         0.0807 
    122 H122      -81.1818   23.5104  -76.6781 H         1 UNK         0.2946 
    123 H123      -82.0602   23.7675  -74.7094 H         1 UNK         0.1144 
    124 H124      -79.8293   24.0461  -72.6162 H         1 UNK         0.0793 
    125 H125      -80.2161   22.5777  -73.5025 H         1 UNK         0.0793 
    126 H126      -81.3821   23.2475  -72.3742 H         1 UNK         0.0793 
    127 H127      -81.4769   25.8581  -72.7945 H         1 UNK         0.2896 
@<TRIPOS>BOND
     1    1    2 1    
     2    1   67 1    
     3    1   68 1    
     4    1   69 1    
     5    2    3 2    
     6    2    4 am   BACKBONE|DICT|INTERRES
     7    4    5 1    
     8    4   70 1    
     9    5    6 1    
    10    5   65 1    
    11    5   71 1    
    12    6    7 1    
    13    6   72 1    
    14    6   73 1    
    15    7    8 1    
    16    8    9 1    
    17    8   74 1    
    18    8   75 1    
    19    9   10 ar   
    20    9   14 ar   
    21   10   11 ar   
    22   10   76 1    
    23   11   12 ar   
    24   11   48 1    
    25   12   13 ar   
    26   12   77 1    
    27   13   14 ar   
    28   13   15 1    
    29   14   78 1    
    30   15   16 1    
    31   15   79 1    
    32   15   80 1    
    33   16   17 1    
    34   17   18 1    
    35   17   81 1    
    36   17   82 1    
    37   18   19 1    
    38   18   22 1    
    39   18   83 1    
    40   19   20 am   BACKBONE|DICT|INTERRES
    41   19   21 2    
    42   20   84 1    
    43   20   85 1    
    44   22   23 am   BACKBONE|DICT|INTERRES
    45   22   86 1    
    46   23   24 2    
    47   23   25 1    
    48   25   26 1    
    49   25   27 1    
    50   25   87 1    
    51   26   88 1    
    52   26   89 1    
    53   26   90 1    
    54   27   28 am   BACKBONE|DICT|INTERRES
    55   27   91 1    
    56   28   29 2    
    57   28   30 1    
    58   30   31 1    
    59   30   32 1    
    60   30   92 1    
    61   31   93 1    
    62   31   94 1    
    63   31   95 1    
    64   32   33 am   BACKBONE|DICT|INTERRES
    65   32   96 1    
    66   33   34 2    
    67   33   35 1    
    68   35   36 1    
    69   35   37 1    
    70   35   97 1    
    71   36   98 1    
    72   36   99 1    
    73   36  100 1    
    74   37   38 am   BACKBONE|DICT|INTERRES
    75   37  101 1    
    76   38   39 2    
    77   38   40 1    
    78   40   41 1    
    79   40   42 1    
    80   40  102 1    
    81   41  103 1    
    82   41  104 1    
    83   41  105 1    
    84   42   43 am   BACKBONE|DICT|INTERRES
    85   42  106 1    
    86   43   44 2    
    87   43   45 1    
    88   45   46 1    
    89   45   49 1    
    90   45  107 1    
    91   46   47 1    
    92   46  108 1    
    93   46  109 1    
    94   47   48 1    
    95   48  110 1    
    96   48  111 1    
    97   49   50 am   BACKBONE|DICT|INTERRES
    98   49  112 1    
    99   50   51 2    
   100   50   52 1    
   101   52   53 1    
   102   52   54 1    
   103   52  113 1    
   104   53  114 1    
   105   53  115 1    
   106   53  116 1    
   107   54   55 am   BACKBONE|DICT|INTERRES
   108   54  117 1    
   109   55   56 2    
   110   55   57 1    
   111   57   58 1    
   112   57   59 1    
   113   57  118 1    
   114   58  119 1    
   115   58  120 1    
   116   58  121 1    
   117   59   60 am   BACKBONE|DICT|INTERRES
   118   59  122 1    
   119   60   61 2    
   120   60   62 1    
   121   62   63 1    
   122   62   64 1    
   123   62  123 1    
   124   63  124 1    
   125   63  125 1    
   126   63  126 1    
   127   64   65 am   BACKBONE|DICT|INTERRES
   128   64  127 1    
   129   65   66 2    
@<TRIPOS>SUBSTRUCTURE
     1 UNK         1 GROUP             0       ****    0 ROOT    
