@<TRIPOS>MOLECULE
3R135
127   129    1
SMALL
USER_CHARGES


@<TRIPOS>ATOM
      1 CA        -81.0625   24.7798  -70.2984 C.3       0 UNK        -0.1998 
      2 C         -82.0394   25.2859  -71.3481 C.2       0 UNK         0.4909 
      3 O         -83.2021   24.8807  -71.3499 O.2       0 UNK        -0.5240 
      4 N         -81.5756   26.1552  -72.2549 N.am      1 UNK        -0.4739 
      5 CA        -82.3632   26.7141  -73.3593 C.3       1 UNK         0.0864 
      6 C6        -81.8473   28.1087  -73.7984 C.3       11 UNK        -0.0881 
      7 S7        -82.1908   29.3708  -72.5232 S.3       11 UNK        -0.2682 
      8 C8        -80.8183   30.5551  -72.7659 C.3       11 UNK         0.0289 
      9 C9        -79.4436   30.1268  -72.2431 C.ar      11 UNK        -0.0687 
     10 C10       -79.2187   28.9057  -71.5930 C.ar      11 UNK        -0.0823 
     11 C11       -77.9355   28.5437  -71.1798 C.ar      11 UNK        -0.0830 
     12 C12       -76.8802   29.4435  -71.3409 C.ar      11 UNK        -0.1021 
     13 C13       -77.0760   30.6537  -72.0088 C.ar      11 UNK        -0.0753 
     14 C14       -78.3602   30.9891  -72.4514 C.ar      11 UNK        -0.0933 
     15 C15       -75.8955   31.5754  -72.2902 C.3       11 UNK         0.0166 
     16 S16       -74.8149   30.9053  -73.6026 S.3       11 UNK        -0.2615 
     17 C17       -73.6841   29.8223  -72.6574 C.3       11 UNK        -0.0865 
     18 CA        -72.1902   30.1053  -72.9595 C.3       10 UNK         0.0862 
     19 C         -71.2582   29.4255  -71.9099 C.2       10 UNK         0.5551 
     20 N         -70.2918   28.5977  -72.2900 N.am      10 UNK        -0.7319 
     21 O         -71.4108   29.6654  -70.7147 O.2       10 UNK        -0.5018 
     22 N         -71.8549   29.7884  -74.3567 N.am      10 UNK        -0.4509 
     23 C         -70.8523   30.3542  -75.0409 C.2       10 UNK         0.4899 
     24 O         -70.1656   31.2800  -74.6050 O.2       10 UNK        -0.4839 
     25 CA        -70.5618   29.7751  -76.4407 C.3       9 UNK         0.0222 
     26 CB        -69.1634   30.1595  -76.9690 C.3       9 UNK        -0.1966 
     27 N         -70.7615   28.3216  -76.5257 N.am      9 UNK        -0.4218 
     28 C         -70.1598   27.3705  -75.7898 C.2       9 UNK         0.5020 
     29 O         -69.3293   27.6183  -74.9145 O.2       9 UNK        -0.5274 
     30 CA        -70.5651   25.9026  -76.0324 C.3       8 UNK         0.0270 
     31 CB        -70.8495   25.1790  -74.7030 C.3       8 UNK        -0.1976 
     32 N         -71.7488   25.7971  -76.8866 N.am      8 UNK        -0.4313 
     33 C         -71.7346   25.5652  -78.2071 C.2       8 UNK         0.5041 
     34 O         -70.7138   25.3087  -78.8460 O.2       8 UNK        -0.5577 
     35 CA        -73.0789   25.6740  -78.9539 C.3       7 UNK         0.0284 
     36 CB        -73.6824   24.2789  -79.1797 C.3       7 UNK        -0.1958 
     37 N         -74.0546   26.5292  -78.2669 N.am      7 UNK        -0.4454 
     38 C         -73.9039   27.8523  -78.0903 C.2       7 UNK         0.5089 
     39 O         -72.9620   28.4908  -78.5585 O.2       7 UNK        -0.5125 
     40 CA        -74.9155   28.5848  -77.1884 C.3       6 UNK         0.0408 
     41 CB        -75.9683   29.3094  -78.0403 C.3       6 UNK        -0.1791 
     42 N         -75.5917   27.7190  -76.2203 N.am      6 UNK        -0.4762 
     43 C         -74.9953   26.9913  -75.2636 C.2       6 UNK         0.5007 
     44 O         -73.7812   27.0121  -75.0540 O.2       6 UNK        -0.5032 
     45 CA        -75.9094   26.0648  -74.4272 C.3       5 UNK         0.0783 
     46 C46       -76.3110   26.8091  -73.1341 C.3       11 UNK        -0.0857 
     47 S47       -77.5159   25.9503  -72.0581 S.3       11 UNK        -0.2512 
     48 C48       -77.6587   27.1366  -70.6697 C.3       11 UNK         0.0225 
     49 N         -77.0871   25.5781  -75.1630 N.am      5 UNK        -0.4615 
     50 C         -77.0847   24.9386  -76.3415 C.2       4 UNK         0.5053 
     51 O         -76.0666   24.7207  -76.9996 O.2       4 UNK        -0.5105 
     52 CA        -78.4611   24.5009  -76.8714 C.3       4 UNK         0.0263 
     53 CB        -78.3740   23.6658  -78.1670 C.3       4 UNK        -0.1981 
     54 N         -79.2621   23.8141  -75.8519 N.am      4 UNK        -0.4224 
     55 C         -78.9735   22.6559  -75.2314 C.2       3 UNK         0.4895 
     56 O         -77.9483   22.0041  -75.4320 O.2       3 UNK        -0.5091 
     57 CA        -79.9936   22.1199  -74.2047 C.3       3 UNK         0.0250 
     58 CB        -79.4606   22.3129  -72.7748 C.3       3 UNK        -0.1996 
     59 N         -81.3153   22.7427  -74.3007 N.am      3 UNK        -0.4254 
     60 C         -82.1670   22.6249  -75.3298 C.2       2 UNK         0.5004 
     61 O         -81.9993   21.8514  -76.2726 O.2       2 UNK        -0.5226 
     62 CA        -83.3934   23.5590  -75.3263 C.3       2 UNK         0.0269 
     63 CB        -84.6677   22.7741  -74.9749 C.3       2 UNK        -0.1926 
     64 N         -83.2704   24.7042  -74.4133 N.am      2 UNK        -0.4687 
     65 C         -82.3689   25.6929  -74.5105 C.2       1 UNK         0.5165 
     66 O         -81.5165   25.7543  -75.3994 O.2       1 UNK        -0.5079 
     67 H67       -81.1509   23.6989  -70.1918 H         1 UNK         0.0900 
     68 H68       -81.2800   25.2361  -69.3332 H         1 UNK         0.0900 
     69 H69       -80.0303   25.0060  -70.5603 H         1 UNK         0.0900 
     70 H70       -80.6013   26.4180  -72.2384 H         1 UNK         0.2959 
     71 H71       -83.3995   26.8396  -73.0351 H         1 UNK         0.1079 
     72 H72       -82.3395   28.4301  -74.7185 H         1 UNK         0.0837 
     73 H73       -80.7784   28.0771  -74.0188 H         1 UNK         0.0837 
     74 H74       -81.0941   31.4868  -72.2700 H         1 UNK         0.0685 
     75 H75       -80.7421   30.7850  -73.8298 H         1 UNK         0.0685 
     76 H76       -80.0260   28.2091  -71.4368 H         1 UNK         0.1434 
     77 H77       -75.8906   29.1610  -71.0152 H         1 UNK         0.1329 
     78 H78       -78.5168   31.9237  -72.9731 H         1 UNK         0.1335 
     79 H79       -76.2539   32.5546  -72.6114 H         1 UNK         0.0680 
     80 H80       -75.3269   31.7508  -71.3760 H         1 UNK         0.0680 
     81 H81       -73.9234   28.7822  -72.8764 H         1 UNK         0.1032 
     82 H82       -73.8766   29.9599  -71.5929 H         1 UNK         0.1032 
     83 H83       -72.0377   31.1770  -72.8172 H         1 UNK         0.0461 
     84 H84       -70.1125   28.3999  -73.2686 H         1 UNK         0.3453 
     85 H85       -69.7049   28.1802  -71.5860 H         1 UNK         0.3453 
     86 H86       -72.3614   29.0181  -74.7713 H         1 UNK         0.2984 
     87 H87       -71.2992   30.2223  -77.1084 H         1 UNK         0.0554 
     88 H88       -69.0518   31.2426  -77.0329 H         1 UNK         0.0847 
     89 H89       -68.9931   29.7595  -77.9684 H         1 UNK         0.0847 
     90 H90       -68.3698   29.7889  -76.3192 H         1 UNK         0.0847 
     91 H91       -71.4352   28.0305  -77.2253 H         1 UNK         0.3141 
     92 H92       -69.7152   25.4102  -76.5090 H         1 UNK         0.0743 
     93 H93       -69.9608   25.1553  -74.0710 H         1 UNK         0.0784 
     94 H94       -71.6387   25.6716  -74.1338 H         1 UNK         0.0784 
     95 H95       -71.1516   24.1452  -74.8706 H         1 UNK         0.0784 
     96 H96       -72.6300   26.0292  -76.4389 H         1 UNK         0.3213 
     97 H97       -72.8755   26.1193  -79.9303 H         1 UNK         0.0855 
     98 H98       -73.8719   23.7638  -78.2372 H         1 UNK         0.0814 
     99 H99       -73.0060   23.6517  -79.7619 H         1 UNK         0.0814 
    100 H100      -74.6242   24.3350  -79.7259 H         1 UNK         0.0814 
    101 H101      -74.8418   26.0562  -77.8304 H         1 UNK         0.3105 
    102 H102      -74.3604   29.3349  -76.6211 H         1 UNK         0.0547 
    103 H103      -75.4946   29.9846  -78.7544 H         1 UNK         0.0837 
    104 H104      -76.5794   28.6087  -78.6106 H         1 UNK         0.0837 
    105 H105      -76.6332   29.9122  -77.4216 H         1 UNK         0.0837 
    106 H106      -76.5936   27.6370  -76.3129 H         1 UNK         0.3020 
    107 H107      -75.3170   25.1884  -74.1563 H         1 UNK         0.1245 
    108 H108      -76.7446   27.7710  -73.4122 H         1 UNK         0.0781 
    109 H109      -75.4258   27.0237  -72.5333 H         1 UNK         0.0781 
    110 H110      -76.7381   27.1151  -70.0843 H         1 UNK         0.0836 
    111 H111      -78.4557   26.8195  -69.9962 H         1 UNK         0.0836 
    112 H112      -77.9690   25.6954  -74.6859 H         1 UNK         0.3022 
    113 H113      -78.9999   25.4187  -77.1119 H         1 UNK         0.0747 
    114 H114      -79.3648   23.3880  -78.5265 H         1 UNK         0.0793 
    115 H115      -77.8001   22.7498  -78.0231 H         1 UNK         0.0793 
    116 H116      -77.8865   24.2305  -78.9627 H         1 UNK         0.0793 
    117 H117      -80.1254   24.2872  -75.6035 H         1 UNK         0.3047 
    118 H118      -80.1114   21.0503  -74.3907 H         1 UNK         0.0822 
    119 H119      -80.1374   21.8845  -72.0353 H         1 UNK         0.0807 
    120 H120      -79.3210   23.3676  -72.5351 H         1 UNK         0.0807 
    121 H121      -78.4944   21.8222  -72.6486 H         1 UNK         0.0807 
    122 H122      -81.5657   23.3879  -73.5665 H         1 UNK         0.2946 
    123 H123      -83.4961   23.9507  -76.3409 H         1 UNK         0.1144 
    124 H124      -84.8069   21.9298  -75.6519 H         1 UNK         0.0793 
    125 H125      -85.5558   23.4011  -75.0567 H         1 UNK         0.0793 
    126 H126      -84.6289   22.3756  -73.9602 H         1 UNK         0.0793 
    127 H127      -83.8729   24.6961  -73.5993 H         1 UNK         0.2896 
@<TRIPOS>BOND
     1    1    2 1    
     2    1   67 1    
     3    1   68 1    
     4    1   69 1    
     5    2    3 2    
     6    2    4 am   BACKBONE|DICT|INTERRES
     7    4    5 1    
     8    4   70 1    
     9    5    6 1    
    10    5   65 1    
    11    5   71 1    
    12    6    7 1    
    13    6   72 1    
    14    6   73 1    
    15    7    8 1    
    16    8    9 1    
    17    8   74 1    
    18    8   75 1    
    19    9   10 ar   
    20    9   14 ar   
    21   10   11 ar   
    22   10   76 1    
    23   11   12 ar   
    24   11   48 1    
    25   12   13 ar   
    26   12   77 1    
    27   13   14 ar   
    28   13   15 1    
    29   14   78 1    
    30   15   16 1    
    31   15   79 1    
    32   15   80 1    
    33   16   17 1    
    34   17   18 1    
    35   17   81 1    
    36   17   82 1    
    37   18   19 1    
    38   18   22 1    
    39   18   83 1    
    40   19   20 am   BACKBONE|DICT|INTERRES
    41   19   21 2    
    42   20   84 1    
    43   20   85 1    
    44   22   23 am   BACKBONE|DICT|INTERRES
    45   22   86 1    
    46   23   24 2    
    47   23   25 1    
    48   25   26 1    
    49   25   27 1    
    50   25   87 1    
    51   26   88 1    
    52   26   89 1    
    53   26   90 1    
    54   27   28 am   BACKBONE|DICT|INTERRES
    55   27   91 1    
    56   28   29 2    
    57   28   30 1    
    58   30   31 1    
    59   30   32 1    
    60   30   92 1    
    61   31   93 1    
    62   31   94 1    
    63   31   95 1    
    64   32   33 am   BACKBONE|DICT|INTERRES
    65   32   96 1    
    66   33   34 2    
    67   33   35 1    
    68   35   36 1    
    69   35   37 1    
    70   35   97 1    
    71   36   98 1    
    72   36   99 1    
    73   36  100 1    
    74   37   38 am   BACKBONE|DICT|INTERRES
    75   37  101 1    
    76   38   39 2    
    77   38   40 1    
    78   40   41 1    
    79   40   42 1    
    80   40  102 1    
    81   41  103 1    
    82   41  104 1    
    83   41  105 1    
    84   42   43 am   BACKBONE|DICT|INTERRES
    85   42  106 1    
    86   43   44 2    
    87   43   45 1    
    88   45   46 1    
    89   45   49 1    
    90   45  107 1    
    91   46   47 1    
    92   46  108 1    
    93   46  109 1    
    94   47   48 1    
    95   48  110 1    
    96   48  111 1    
    97   49   50 am   BACKBONE|DICT|INTERRES
    98   49  112 1    
    99   50   51 2    
   100   50   52 1    
   101   52   53 1    
   102   52   54 1    
   103   52  113 1    
   104   53  114 1    
   105   53  115 1    
   106   53  116 1    
   107   54   55 am   BACKBONE|DICT|INTERRES
   108   54  117 1    
   109   55   56 2    
   110   55   57 1    
   111   57   58 1    
   112   57   59 1    
   113   57  118 1    
   114   58  119 1    
   115   58  120 1    
   116   58  121 1    
   117   59   60 am   BACKBONE|DICT|INTERRES
   118   59  122 1    
   119   60   61 2    
   120   60   62 1    
   121   62   63 1    
   122   62   64 1    
   123   62  123 1    
   124   63  124 1    
   125   63  125 1    
   126   63  126 1    
   127   64   65 am   BACKBONE|DICT|INTERRES
   128   64  127 1    
   129   65   66 2    
@<TRIPOS>SUBSTRUCTURE
     1 UNK         1 GROUP             0       ****    0 ROOT    
