@<TRIPOS>MOLECULE
3R135
127   129    1
SMALL
USER_CHARGES


@<TRIPOS>ATOM
      1 CA        -84.5680   24.3654  -70.2763 C.3       0 UNK        -0.1998 
      2 C         -83.4202   24.5777  -71.2516 C.2       0 UNK         0.4909 
      3 O         -82.9787   23.6195  -71.8877 O.2       0 UNK        -0.5240 
      4 N         -82.9430   25.8255  -71.3724 N.am      1 UNK        -0.4739 
      5 CA        -81.8525   26.3029  -72.2382 C.3       1 UNK         0.0864 
      6 C6        -80.4832   25.6192  -71.9693 C.3       11 UNK        -0.0881 
      7 S7        -79.7518   26.1484  -70.3830 S.3       11 UNK        -0.2682 
      8 C8        -78.0032   26.4262  -70.8411 C.3       11 UNK         0.0289 
      9 C9        -77.6924   27.8198  -71.3895 C.ar      11 UNK        -0.0687 
     10 C10       -78.5592   28.4789  -72.2686 C.ar      11 UNK        -0.0823 
     11 C11       -78.2268   29.7227  -72.8084 C.ar      11 UNK        -0.0830 
     12 C12       -77.0232   30.3306  -72.4452 C.ar      11 UNK        -0.1021 
     13 C13       -76.1471   29.6916  -71.5641 C.ar      11 UNK        -0.0753 
     14 C14       -76.4842   28.4371  -71.0451 C.ar      11 UNK        -0.0933 
     15 C15       -74.8331   30.3548  -71.1844 C.3       11 UNK         0.0166 
     16 S16       -73.5581   30.0337  -72.4382 S.3       11 UNK        -0.2615 
     17 C17       -72.1264   30.8821  -71.6929 C.3       11 UNK        -0.0865 
     18 CA        -71.0405   31.2516  -72.7379 C.3       10 UNK         0.0862 
     19 C         -69.9242   32.1201  -72.0848 C.2       10 UNK         0.5551 
     20 N         -68.6828   31.6575  -71.9979 N.am      10 UNK        -0.7319 
     21 O         -70.1930   33.2378  -71.6513 O.2       10 UNK        -0.5018 
     22 N         -70.5589   30.0623  -73.4633 N.am      10 UNK        -0.4509 
     23 C         -69.8974   30.0847  -74.6281 C.2       10 UNK         0.4899 
     24 O         -69.6170   31.1167  -75.2384 O.2       10 UNK        -0.4839 
     25 CA        -69.4599   28.7292  -75.2126 C.3       9 UNK         0.0222 
     26 CB        -67.9939   28.4402  -74.8491 C.3       9 UNK        -0.1966 
     27 N         -70.2964   27.6058  -74.7768 N.am      9 UNK        -0.4218 
     28 C         -71.5271   27.3524  -75.2421 C.2       9 UNK         0.5020 
     29 O         -72.0977   28.0418  -76.0902 O.2       9 UNK        -0.5274 
     30 CA        -72.2432   26.1368  -74.6287 C.3       8 UNK         0.0270 
     31 CB        -73.1170   26.5671  -73.4397 C.3       8 UNK        -0.1976 
     32 N         -73.0716   25.4323  -75.6098 N.am      8 UNK        -0.4313 
     33 C         -72.5837   24.6997  -76.6210 C.2       8 UNK         0.5041 
     34 O         -71.3800   24.5144  -76.8110 O.2       8 UNK        -0.5577 
     35 CA        -73.5968   24.0354  -77.5695 C.3       7 UNK         0.0284 
     36 CB        -74.0985   22.7096  -76.9764 C.3       7 UNK        -0.1958 
     37 N         -74.7357   24.8948  -77.9016 N.am      7 UNK        -0.4454 
     38 C         -74.6599   25.9680  -78.7027 C.2       7 UNK         0.5089 
     39 O         -73.6220   26.3481  -79.2454 O.2       7 UNK        -0.5125 
     40 CA        -75.9650   26.7380  -78.9635 C.3       6 UNK         0.0408 
     41 CB        -76.7367   26.1192  -80.1402 C.3       6 UNK        -0.1791 
     42 N         -76.8238   26.7785  -77.7798 N.am      6 UNK        -0.4762 
     43 C         -76.6521   27.6291  -76.7564 C.2       6 UNK         0.5007 
     44 O         -75.7874   28.5049  -76.7389 O.2       6 UNK        -0.5032 
     45 CA        -77.5901   27.4582  -75.5411 C.3       5 UNK         0.0783 
     46 C46       -78.8881   28.2935  -75.7006 C.3       11 UNK        -0.0857 
     47 S47       -78.6266   30.0929  -75.5197 S.3       11 UNK        -0.2512 
     48 C48       -79.1591   30.3943  -73.8045 C.3       11 UNK         0.0225 
     49 N         -77.8964   26.0450  -75.2834 N.am      5 UNK        -0.4615 
     50 C         -76.9904   25.1300  -74.9020 C.2       4 UNK         0.5053 
     51 O         -75.8158   25.3999  -74.6627 O.2       4 UNK        -0.5105 
     52 CA        -77.4317   23.6545  -74.8334 C.3       4 UNK         0.0263 
     53 CB        -77.7632   23.2376  -73.3937 C.3       4 UNK        -0.1981 
     54 N         -78.5523   23.3283  -75.7164 N.am      4 UNK        -0.4224 
     55 C         -78.5225   23.4362  -77.0524 C.2       3 UNK         0.4895 
     56 O         -77.5143   23.7544  -77.6845 O.2       3 UNK        -0.5091 
     57 CA        -79.8476   23.2155  -77.8058 C.3       3 UNK         0.0250 
     58 CB        -79.9205   21.7786  -78.3453 C.3       3 UNK        -0.1996 
     59 N         -81.0602   23.5052  -77.0243 N.am      3 UNK        -0.4254 
     60 C         -81.3485   24.6745  -76.4309 C.2       2 UNK         0.5004 
     61 O         -80.5762   25.6340  -76.4345 O.2       2 UNK        -0.5226 
     62 CA        -82.6961   24.7926  -75.6898 C.3       2 UNK         0.0269 
     63 CB        -83.5989   23.5478  -75.8137 C.3       2 UNK        -0.1926 
     64 N         -82.4695   25.0680  -74.2708 N.am      2 UNK        -0.4687 
     65 C         -82.2162   26.2687  -73.7365 C.2       1 UNK         0.5165 
     66 O         -82.2602   27.3250  -74.3676 O.2       1 UNK        -0.5079 
     67 H67       -84.8586   25.2906  -69.7788 H         1 UNK         0.0900 
     68 H68       -85.4388   23.9746  -70.8019 H         1 UNK         0.0900 
     69 H69       -84.2801   23.6452  -69.5110 H         1 UNK         0.0900 
     70 H70       -83.3790   26.5531  -70.8226 H         1 UNK         0.2959 
     71 H71       -81.7419   27.3615  -71.9961 H         1 UNK         0.1079 
     72 H72       -80.5802   24.5337  -71.9550 H         1 UNK         0.0837 
     73 H73       -79.7780   25.8349  -72.7736 H         1 UNK         0.0837 
     74 H74       -77.4054   26.2456  -69.9464 H         1 UNK         0.0685 
     75 H75       -77.6868   25.6788  -71.5690 H         1 UNK         0.0685 
     76 H76       -79.4914   28.0256  -72.5597 H         1 UNK         0.1434 
     77 H77       -76.7576   31.2916  -72.8646 H         1 UNK         0.1329 
     78 H78       -75.7957   27.9363  -70.3780 H         1 UNK         0.1335 
     79 H79       -74.4892   29.9896  -70.2153 H         1 UNK         0.0680 
     80 H80       -74.9783   31.4311  -71.0784 H         1 UNK         0.0680 
     81 H81       -71.7084   30.2439  -70.9121 H         1 UNK         0.1032 
     82 H82       -72.4860   31.7827  -71.1906 H         1 UNK         0.1032 
     83 H83       -71.5156   31.8987  -73.4780 H         1 UNK         0.0461 
     84 H84       -67.9693   32.2308  -71.5760 H         1 UNK         0.3453 
     85 H85       -68.4535   30.7439  -72.3536 H         1 UNK         0.3453 
     86 H86       -70.7598   29.1710  -73.0371 H         1 UNK         0.2984 
     87 H87       -69.5278   28.8049  -76.3002 H         1 UNK         0.0554 
     88 H88       -67.3425   29.2498  -75.1817 H         1 UNK         0.0847 
     89 H89       -67.6390   27.5270  -75.3272 H         1 UNK         0.0847 
     90 H90       -67.8548   28.3323  -73.7728 H         1 UNK         0.0847 
     91 H91       -69.9006   26.9861  -74.0839 H         1 UNK         0.3141 
     92 H92       -71.4910   25.4348  -74.2623 H         1 UNK         0.0743 
     93 H93       -73.9056   27.2543  -73.7507 H         1 UNK         0.0784 
     94 H94       -73.5927   25.7090  -72.9645 H         1 UNK         0.0784 
     95 H95       -72.5249   27.0724  -72.6760 H         1 UNK         0.0784 
     96 H96       -74.0782   25.5216  -75.4969 H         1 UNK         0.3213 
     97 H97       -73.0759   23.8062  -78.5019 H         1 UNK         0.0855 
     98 H98       -74.5120   22.8469  -75.9784 H         1 UNK         0.0814 
     99 H99       -73.2797   21.9946  -76.8869 H         1 UNK         0.0814 
    100 H100      -74.8641   22.2509  -77.6029 H         1 UNK         0.0814 
    101 H101      -75.6493   24.6109  -77.5642 H         1 UNK         0.3105 
    102 H102      -75.7004   27.7606  -79.2416 H         1 UNK         0.0547 
    103 H103      -77.6429   26.6832  -80.3612 H         1 UNK         0.0837 
    104 H104      -77.0238   25.0860  -79.9434 H         1 UNK         0.0837 
    105 H105      -76.1277   26.1188  -81.0452 H         1 UNK         0.0837 
    106 H106      -77.5248   26.0535  -77.7002 H         1 UNK         0.3020 
    107 H107      -77.0448   27.8274  -74.6690 H         1 UNK         0.1245 
    108 H108      -79.6310   27.9789  -74.9674 H         1 UNK         0.0781 
    109 H109      -79.3513   28.1073  -76.6715 H         1 UNK         0.0781 
    110 H110      -80.1859   30.0483  -73.6734 H         1 UNK         0.0836 
    111 H111      -79.1756   31.4700  -73.6228 H         1 UNK         0.0836 
    112 H112      -78.8363   25.7467  -75.5289 H         1 UNK         0.3022 
    113 H113      -76.5842   23.0519  -75.1590 H         1 UNK         0.0747 
    114 H114      -77.9257   22.1620  -73.3217 H         1 UNK         0.0793 
    115 H115      -76.9446   23.4847  -72.7160 H         1 UNK         0.0793 
    116 H116      -78.6570   23.7343  -73.0243 H         1 UNK         0.0793 
    117 H117      -79.4212   23.0598  -75.2787 H         1 UNK         0.3047 
    118 H118      -79.8430   23.8994  -78.6571 H         1 UNK         0.0822 
    119 H119      -80.7951   21.6358  -78.9804 H         1 UNK         0.0807 
    120 H120      -79.9660   21.0457  -77.5388 H         1 UNK         0.0807 
    121 H121      -79.0432   21.5435  -78.9501 H         1 UNK         0.0807 
    122 H122      -81.7432   22.7637  -76.9657 H         1 UNK         0.2946 
    123 H123      -83.2247   25.6375  -76.1374 H         1 UNK         0.1144 
    124 H124      -83.1463   22.6632  -75.3634 H         1 UNK         0.0793 
    125 H125      -83.8248   23.3208  -76.8566 H         1 UNK         0.0793 
    126 H126      -84.5545   23.7122  -75.3150 H         1 UNK         0.0793 
    127 H127      -82.4788   24.2755  -73.6343 H         1 UNK         0.2896 
@<TRIPOS>BOND
     1    1    2 1    
     2    1   67 1    
     3    1   68 1    
     4    1   69 1    
     5    2    3 2    
     6    2    4 am   BACKBONE|DICT|INTERRES
     7    4    5 1    
     8    4   70 1    
     9    5    6 1    
    10    5   65 1    
    11    5   71 1    
    12    6    7 1    
    13    6   72 1    
    14    6   73 1    
    15    7    8 1    
    16    8    9 1    
    17    8   74 1    
    18    8   75 1    
    19    9   10 ar   
    20    9   14 ar   
    21   10   11 ar   
    22   10   76 1    
    23   11   12 ar   
    24   11   48 1    
    25   12   13 ar   
    26   12   77 1    
    27   13   14 ar   
    28   13   15 1    
    29   14   78 1    
    30   15   16 1    
    31   15   79 1    
    32   15   80 1    
    33   16   17 1    
    34   17   18 1    
    35   17   81 1    
    36   17   82 1    
    37   18   19 1    
    38   18   22 1    
    39   18   83 1    
    40   19   20 am   BACKBONE|DICT|INTERRES
    41   19   21 2    
    42   20   84 1    
    43   20   85 1    
    44   22   23 am   BACKBONE|DICT|INTERRES
    45   22   86 1    
    46   23   24 2    
    47   23   25 1    
    48   25   26 1    
    49   25   27 1    
    50   25   87 1    
    51   26   88 1    
    52   26   89 1    
    53   26   90 1    
    54   27   28 am   BACKBONE|DICT|INTERRES
    55   27   91 1    
    56   28   29 2    
    57   28   30 1    
    58   30   31 1    
    59   30   32 1    
    60   30   92 1    
    61   31   93 1    
    62   31   94 1    
    63   31   95 1    
    64   32   33 am   BACKBONE|DICT|INTERRES
    65   32   96 1    
    66   33   34 2    
    67   33   35 1    
    68   35   36 1    
    69   35   37 1    
    70   35   97 1    
    71   36   98 1    
    72   36   99 1    
    73   36  100 1    
    74   37   38 am   BACKBONE|DICT|INTERRES
    75   37  101 1    
    76   38   39 2    
    77   38   40 1    
    78   40   41 1    
    79   40   42 1    
    80   40  102 1    
    81   41  103 1    
    82   41  104 1    
    83   41  105 1    
    84   42   43 am   BACKBONE|DICT|INTERRES
    85   42  106 1    
    86   43   44 2    
    87   43   45 1    
    88   45   46 1    
    89   45   49 1    
    90   45  107 1    
    91   46   47 1    
    92   46  108 1    
    93   46  109 1    
    94   47   48 1    
    95   48  110 1    
    96   48  111 1    
    97   49   50 am   BACKBONE|DICT|INTERRES
    98   49  112 1    
    99   50   51 2    
   100   50   52 1    
   101   52   53 1    
   102   52   54 1    
   103   52  113 1    
   104   53  114 1    
   105   53  115 1    
   106   53  116 1    
   107   54   55 am   BACKBONE|DICT|INTERRES
   108   54  117 1    
   109   55   56 2    
   110   55   57 1    
   111   57   58 1    
   112   57   59 1    
   113   57  118 1    
   114   58  119 1    
   115   58  120 1    
   116   58  121 1    
   117   59   60 am   BACKBONE|DICT|INTERRES
   118   59  122 1    
   119   60   61 2    
   120   60   62 1    
   121   62   63 1    
   122   62   64 1    
   123   62  123 1    
   124   63  124 1    
   125   63  125 1    
   126   63  126 1    
   127   64   65 am   BACKBONE|DICT|INTERRES
   128   64  127 1    
   129   65   66 2    
@<TRIPOS>SUBSTRUCTURE
     1 UNK         1 GROUP             0       ****    0 ROOT    
