@<TRIPOS>MOLECULE
3R135
127   129    1
SMALL
USER_CHARGES


@<TRIPOS>ATOM
      1 CA        -75.1827   27.0720  -70.0233 C.3       0 UNK        -0.1998 
      2 C         -76.3518   26.1089  -69.8837 C.2       0 UNK         0.4909 
      3 O         -76.2357   25.1059  -69.1791 O.2       0 UNK        -0.5240 
      4 N         -77.4819   26.4127  -70.5362 N.am      1 UNK        -0.4739 
      5 CA        -78.7283   25.6365  -70.4559 C.3       1 UNK         0.0864 
      6 C6        -79.9374   26.4375  -70.9982 C.3       11 UNK        -0.0881 
      7 S7        -80.2816   27.9067  -69.9765 S.3       11 UNK        -0.2682 
      8 C8        -81.1657   28.9787  -71.1584 C.3       11 UNK         0.0289 
      9 C9        -80.2611   29.6780  -72.1712 C.ar      11 UNK        -0.0687 
     10 C10       -80.6888   29.8244  -73.4958 C.ar      11 UNK        -0.0823 
     11 C11       -79.9155   30.5313  -74.4232 C.ar      11 UNK        -0.0830 
     12 C12       -78.6933   31.0772  -74.0243 C.ar      11 UNK        -0.1021 
     13 C13       -78.2568   30.9449  -72.7036 C.ar      11 UNK        -0.0753 
     14 C14       -79.0430   30.2482  -71.7820 C.ar      11 UNK        -0.0933 
     15 C15       -76.9552   31.5932  -72.2665 C.3       11 UNK         0.0166 
     16 S16       -75.5654   30.4357  -72.4098 S.3       11 UNK        -0.2615 
     17 C17       -74.1726   31.6077  -72.2363 C.3       11 UNK        -0.0865 
     18 CA        -72.7761   30.9830  -72.4933 C.3       10 UNK         0.0862 
     19 C         -72.2720   30.1682  -71.2694 C.2       10 UNK         0.5551 
     20 N         -71.6084   30.8225  -70.3257 N.am      10 UNK        -0.7319 
     21 O         -72.5103   28.9697  -71.1441 O.2       10 UNK        -0.5018 
     22 N         -72.7638   30.2180  -73.7452 N.am      10 UNK        -0.4509 
     23 C         -71.6733   29.8050  -74.3990 C.2       10 UNK         0.4899 
     24 O         -70.5236   30.1204  -74.0864 O.2       10 UNK        -0.4839 
     25 CA        -71.9315   28.8920  -75.6148 C.3       9 UNK         0.0222 
     26 CB        -70.6481   28.2331  -76.1629 C.3       9 UNK        -0.1966 
     27 N         -72.9664   27.8822  -75.3565 N.am      9 UNK        -0.4218 
     28 C         -72.9496   26.9295  -74.4086 C.2       9 UNK         0.5020 
     29 O         -72.0311   26.7534  -73.6079 O.2       9 UNK        -0.5274 
     30 CA        -74.1612   25.9840  -74.3796 C.3       8 UNK         0.0270 
     31 CB        -75.4157   26.7108  -73.8601 C.3       8 UNK        -0.1976 
     32 N         -74.4250   25.4038  -75.6977 N.am      8 UNK        -0.4313 
     33 C         -73.5902   24.5870  -76.3596 C.2       8 UNK         0.5041 
     34 O         -72.5492   24.1308  -75.8859 O.2       8 UNK        -0.5577 
     35 CA        -73.9675   24.2379  -77.8078 C.3       7 UNK         0.0284 
     36 CB        -74.8884   23.0068  -77.8582 C.3       7 UNK        -0.1958 
     37 N         -74.5969   25.3741  -78.4868 N.am      7 UNK        -0.4454 
     38 C         -73.9223   26.4321  -78.9625 C.2       7 UNK         0.5089 
     39 O         -72.6943   26.5137  -78.9706 O.2       7 UNK        -0.5125 
     40 CA        -74.7516   27.6056  -79.5163 C.3       6 UNK         0.0408 
     41 CB        -74.9342   27.4615  -81.0354 C.3       6 UNK        -0.1791 
     42 N         -76.0655   27.7359  -78.8809 N.am      6 UNK        -0.4762 
     43 C         -76.2706   28.1428  -77.6187 C.2       6 UNK         0.5007 
     44 O         -75.3662   28.5001  -76.8630 O.2       6 UNK        -0.5032 
     45 CA        -77.7249   28.0701  -77.1032 C.3       5 UNK         0.0783 
     46 C46       -78.4821   29.3905  -77.3891 C.3       11 UNK        -0.0857 
     47 S47       -80.2422   29.3072  -76.9004 S.3       11 UNK        -0.2512 
     48 C48       -80.4363   30.7661  -75.8339 C.3       11 UNK         0.0225 
     49 N         -78.4341   26.9007  -77.6418 N.am      5 UNK        -0.4615 
     50 C         -78.1136   25.6308  -77.3800 C.2       4 UNK         0.5053 
     51 O         -77.1439   25.2982  -76.6938 O.2       4 UNK        -0.5105 
     52 CA        -78.9820   24.5560  -78.0358 C.3       4 UNK         0.0263 
     53 CB        -78.4422   24.1832  -79.4274 C.3       4 UNK        -0.1981 
     54 N         -78.9714   23.3863  -77.1680 N.am      4 UNK        -0.4224 
     55 C         -79.9911   22.5408  -76.9851 C.2       3 UNK         0.4895 
     56 O         -81.0334   22.5750  -77.6410 O.2       3 UNK        -0.5091 
     57 CA        -79.8390   21.4769  -75.8782 C.3       3 UNK         0.0250 
     58 CB        -79.5150   20.1070  -76.4972 C.3       3 UNK        -0.1996 
     59 N         -78.8325   21.7869  -74.8530 N.am      3 UNK        -0.4254 
     60 C         -78.8628   22.8421  -74.0256 C.2       2 UNK         0.5004 
     61 O         -79.7527   23.6963  -74.0453 O.2       2 UNK        -0.5226 
     62 CA        -77.6803   22.9642  -73.0424 C.3       2 UNK         0.0269 
     63 CB        -76.3372   23.0248  -73.7928 C.3       2 UNK        -0.1926 
     64 N         -77.7975   24.1490  -72.1868 N.am      2 UNK        -0.4687 
     65 C         -78.6398   24.2606  -71.1502 C.2       1 UNK         0.5165 
     66 O         -79.3344   23.3308  -70.7347 O.2       1 UNK        -0.5079 
     67 H67       -74.8173   27.3652  -69.0397 H         1 UNK         0.0900 
     68 H68       -75.4617   27.9796  -70.5580 H         1 UNK         0.0900 
     69 H69       -74.3618   26.5981  -70.5611 H         1 UNK         0.0900 
     70 H70       -77.5337   27.2648  -71.0763 H         1 UNK         0.2959 
     71 H71       -78.9133   25.4270  -69.3995 H         1 UNK         0.1079 
     72 H72       -79.7642   26.7402  -72.0332 H         1 UNK         0.0837 
     73 H73       -80.8410   25.8241  -71.0046 H         1 UNK         0.0837 
     74 H74       -81.9296   28.3862  -71.6644 H         1 UNK         0.0685 
     75 H75       -81.6969   29.7458  -70.5937 H         1 UNK         0.0685 
     76 H76       -81.6412   29.4137  -73.8026 H         1 UNK         0.1434 
     77 H77       -78.0930   31.6314  -74.7330 H         1 UNK         0.1329 
     78 H78       -78.7114   30.1661  -70.7561 H         1 UNK         0.1335 
     79 H79       -77.0317   31.9400  -71.2347 H         1 UNK         0.0680 
     80 H80       -76.7621   32.4779  -72.8754 H         1 UNK         0.0680 
     81 H81       -74.2174   32.0760  -71.2509 H         1 UNK         0.1032 
     82 H82       -74.3262   32.4182  -72.9505 H         1 UNK         0.1032 
     83 H83       -72.0778   31.8113  -72.6313 H         1 UNK         0.0461 
     84 H84       -71.2863   30.3163  -69.5156 H         1 UNK         0.3453 
     85 H85       -71.4130   31.8079  -70.4104 H         1 UNK         0.3453 
     86 H86       -73.6653   29.8776  -74.0466 H         1 UNK         0.2984 
     87 H87       -72.3300   29.5359  -76.4002 H         1 UNK         0.0554 
     88 H88       -70.8631   27.6117  -77.0324 H         1 UNK         0.0847 
     89 H89       -70.1636   27.6054  -75.4144 H         1 UNK         0.0847 
     90 H90       -69.9236   28.9864  -76.4743 H         1 UNK         0.0847 
     91 H91       -73.7989   27.9579  -75.9380 H         1 UNK         0.3141 
     92 H92       -73.9330   25.1644  -73.6952 H         1 UNK         0.0743 
     93 H93       -75.6815   27.5687  -74.4754 H         1 UNK         0.0784 
     94 H94       -76.2816   26.0523  -73.8264 H         1 UNK         0.0784 
     95 H95       -75.2492   27.0892  -72.8528 H         1 UNK         0.0784 
     96 H96       -75.3078   25.6431  -76.1388 H         1 UNK         0.3213 
     97 H97       -73.0462   23.9860  -78.3382 H         1 UNK         0.0855 
     98 H98       -75.8207   23.1649  -77.3179 H         1 UNK         0.0814 
     99 H99       -74.3995   22.1426  -77.4065 H         1 UNK         0.0814 
    100 H100      -75.1344   22.7367  -78.8851 H         1 UNK         0.0814 
    101 H101      -75.6056   25.4063  -78.4840 H         1 UNK         0.3105 
    102 H102      -74.1908   28.5235  -79.3266 H         1 UNK         0.0547 
    103 H103      -73.9688   27.3896  -81.5384 H         1 UNK         0.0837 
    104 H104      -75.5023   26.5668  -81.2931 H         1 UNK         0.0837 
    105 H105      -75.4524   28.3229  -81.4569 H         1 UNK         0.0837 
    106 H106      -76.8680   27.4633  -79.4302 H         1 UNK         0.3020 
    107 H107      -77.6718   27.9445  -76.0190 H         1 UNK         0.1245 
    108 H108      -77.9964   30.2200  -76.8722 H         1 UNK         0.0781 
    109 H109      -78.4470   29.6338  -78.4529 H         1 UNK         0.0781 
    110 H110      -79.9482   31.6266  -76.2944 H         1 UNK         0.0836 
    111 H111      -81.4966   31.0185  -75.7836 H         1 UNK         0.0836 
    112 H112      -79.2516   27.1005  -78.2003 H         1 UNK         0.3022 
    113 H113      -80.0009   24.9393  -78.1254 H         1 UNK         0.0747 
    114 H114      -79.0641   23.4223  -79.8992 H         1 UNK         0.0793 
    115 H115      -78.4324   25.0485  -80.0912 H         1 UNK         0.0793 
    116 H116      -77.4246   23.7952  -79.3772 H         1 UNK         0.0793 
    117 H117      -78.1728   23.3353  -76.5495 H         1 UNK         0.3047 
    118 H118      -80.8051   21.4044  -75.3740 H         1 UNK         0.0822 
    119 H119      -79.5054   19.3206  -75.7422 H         1 UNK         0.0807 
    120 H120      -78.5446   20.1088  -76.9956 H         1 UNK         0.0807 
    121 H121      -80.2622   19.8274  -77.2415 H         1 UNK         0.0807 
    122 H122      -78.0667   21.1333  -74.7726 H         1 UNK         0.2946 
    123 H123      -77.6843   22.0778  -72.4036 H         1 UNK         0.1144 
    124 H124      -76.1106   22.0783  -74.2843 H         1 UNK         0.0793 
    125 H125      -75.5088   23.2344  -73.1158 H         1 UNK         0.0793 
    126 H126      -76.3460   23.7930  -74.5644 H         1 UNK         0.0793 
    127 H127      -77.2815   24.9689  -72.4654 H         1 UNK         0.2896 
@<TRIPOS>BOND
     1    1    2 1    
     2    1   67 1    
     3    1   68 1    
     4    1   69 1    
     5    2    3 2    
     6    2    4 am   BACKBONE|DICT|INTERRES
     7    4    5 1    
     8    4   70 1    
     9    5    6 1    
    10    5   65 1    
    11    5   71 1    
    12    6    7 1    
    13    6   72 1    
    14    6   73 1    
    15    7    8 1    
    16    8    9 1    
    17    8   74 1    
    18    8   75 1    
    19    9   10 ar   
    20    9   14 ar   
    21   10   11 ar   
    22   10   76 1    
    23   11   12 ar   
    24   11   48 1    
    25   12   13 ar   
    26   12   77 1    
    27   13   14 ar   
    28   13   15 1    
    29   14   78 1    
    30   15   16 1    
    31   15   79 1    
    32   15   80 1    
    33   16   17 1    
    34   17   18 1    
    35   17   81 1    
    36   17   82 1    
    37   18   19 1    
    38   18   22 1    
    39   18   83 1    
    40   19   20 am   BACKBONE|DICT|INTERRES
    41   19   21 2    
    42   20   84 1    
    43   20   85 1    
    44   22   23 am   BACKBONE|DICT|INTERRES
    45   22   86 1    
    46   23   24 2    
    47   23   25 1    
    48   25   26 1    
    49   25   27 1    
    50   25   87 1    
    51   26   88 1    
    52   26   89 1    
    53   26   90 1    
    54   27   28 am   BACKBONE|DICT|INTERRES
    55   27   91 1    
    56   28   29 2    
    57   28   30 1    
    58   30   31 1    
    59   30   32 1    
    60   30   92 1    
    61   31   93 1    
    62   31   94 1    
    63   31   95 1    
    64   32   33 am   BACKBONE|DICT|INTERRES
    65   32   96 1    
    66   33   34 2    
    67   33   35 1    
    68   35   36 1    
    69   35   37 1    
    70   35   97 1    
    71   36   98 1    
    72   36   99 1    
    73   36  100 1    
    74   37   38 am   BACKBONE|DICT|INTERRES
    75   37  101 1    
    76   38   39 2    
    77   38   40 1    
    78   40   41 1    
    79   40   42 1    
    80   40  102 1    
    81   41  103 1    
    82   41  104 1    
    83   41  105 1    
    84   42   43 am   BACKBONE|DICT|INTERRES
    85   42  106 1    
    86   43   44 2    
    87   43   45 1    
    88   45   46 1    
    89   45   49 1    
    90   45  107 1    
    91   46   47 1    
    92   46  108 1    
    93   46  109 1    
    94   47   48 1    
    95   48  110 1    
    96   48  111 1    
    97   49   50 am   BACKBONE|DICT|INTERRES
    98   49  112 1    
    99   50   51 2    
   100   50   52 1    
   101   52   53 1    
   102   52   54 1    
   103   52  113 1    
   104   53  114 1    
   105   53  115 1    
   106   53  116 1    
   107   54   55 am   BACKBONE|DICT|INTERRES
   108   54  117 1    
   109   55   56 2    
   110   55   57 1    
   111   57   58 1    
   112   57   59 1    
   113   57  118 1    
   114   58  119 1    
   115   58  120 1    
   116   58  121 1    
   117   59   60 am   BACKBONE|DICT|INTERRES
   118   59  122 1    
   119   60   61 2    
   120   60   62 1    
   121   62   63 1    
   122   62   64 1    
   123   62  123 1    
   124   63  124 1    
   125   63  125 1    
   126   63  126 1    
   127   64   65 am   BACKBONE|DICT|INTERRES
   128   64  127 1    
   129   65   66 2    
@<TRIPOS>SUBSTRUCTURE
     1 UNK         1 GROUP             0       ****    0 ROOT    
