@<TRIPOS>MOLECULE
3R135
127   129    1
SMALL
USER_CHARGES


@<TRIPOS>ATOM
      1 CA        -84.3671   30.4357  -75.7179 C.3       0 UNK        -0.1998 
      2 C         -83.1727   29.6602  -76.2528 C.2       0 UNK         0.4909 
      3 O         -83.0744   29.4444  -77.4610 O.2       0 UNK        -0.5240 
      4 N         -82.2634   29.2423  -75.3619 N.am      1 UNK        -0.4739 
      5 CA        -81.0478   28.4823  -75.6903 C.3       1 UNK         0.0864 
      6 C6        -80.0502   28.4530  -74.5041 C.3       11 UNK        -0.0881 
      7 S7        -79.5378   30.1330  -74.0098 S.3       11 UNK        -0.2682 
      8 C8        -77.7421   30.0897  -74.3018 C.3       11 UNK         0.0289 
      9 C9        -76.9954   29.4369  -73.1472 C.ar      11 UNK        -0.0687 
     10 C10       -76.3700   28.1961  -73.3093 C.ar      11 UNK        -0.0823 
     11 C11       -75.6321   27.6334  -72.2628 C.ar      11 UNK        -0.0830 
     12 C12       -75.5557   28.2988  -71.0370 C.ar      11 UNK        -0.1021 
     13 C13       -76.1725   29.5411  -70.8644 C.ar      11 UNK        -0.0753 
     14 C14       -76.8878   30.1055  -71.9238 C.ar      11 UNK        -0.0933 
     15 C15       -76.0627   30.2795  -69.5385 C.3       11 UNK         0.0166 
     16 S16       -74.7447   31.5386  -69.5644 S.3       11 UNK        -0.2615 
     17 C17       -73.2353   30.5076  -69.5781 C.3       11 UNK        -0.0865 
     18 CA        -72.3576   30.7046  -70.8428 C.3       10 UNK         0.0862 
     19 C         -71.1160   29.7726  -70.7794 C.2       10 UNK         0.5551 
     20 N         -69.9875   30.2726  -70.2949 N.am      10 UNK        -0.7319 
     21 O         -71.1852   28.5922  -71.1160 O.2       10 UNK        -0.5018 
     22 N         -73.1298   30.5495  -72.0858 N.am      10 UNK        -0.4509 
     23 C         -72.6625   30.7944  -73.3155 C.2       10 UNK         0.4899 
     24 O         -71.5234   31.2008  -73.5580 O.2       10 UNK        -0.4839 
     25 CA        -73.6613   30.6207  -74.4678 C.3       9 UNK         0.0222 
     26 CB        -74.3859   31.9451  -74.7578 C.3       9 UNK        -0.1966 
     27 N         -72.9812   30.1632  -75.6804 N.am      9 UNK        -0.4218 
     28 C         -72.7249   28.8785  -75.9473 C.2       9 UNK         0.5020 
     29 O         -73.0946   27.9399  -75.2356 O.2       9 UNK        -0.5274 
     30 CA        -71.9267   28.5809  -77.2234 C.3       8 UNK         0.0270 
     31 CB        -70.4127   28.7144  -76.9840 C.3       8 UNK        -0.1976 
     32 N         -72.2529   27.2155  -77.6097 N.am      8 UNK        -0.4313 
     33 C         -72.2733   26.7024  -78.8451 C.2       8 UNK         0.5041 
     34 O         -71.8624   27.2943  -79.8439 O.2       8 UNK        -0.5577 
     35 CA        -72.8955   25.2989  -78.9898 C.3       7 UNK         0.0284 
     36 CB        -71.8133   24.2116  -78.8964 C.3       7 UNK        -0.1958 
     37 N         -73.9104   25.0639  -77.9589 N.am      7 UNK        -0.4454 
     38 C         -75.1246   25.6240  -77.9478 C.2       7 UNK         0.5089 
     39 O         -75.6229   26.1643  -78.9366 O.2       7 UNK        -0.5125 
     40 CA        -75.8731   25.6542  -76.5962 C.3       6 UNK         0.0408 
     41 CB        -77.3544   26.0382  -76.7544 C.3       6 UNK        -0.1791 
     42 N         -75.7815   24.4481  -75.7621 N.am      6 UNK        -0.4762 
     43 C         -74.6916   23.9966  -75.1183 C.2       6 UNK         0.5007 
     44 O         -73.5553   24.4258  -75.3220 O.2       6 UNK        -0.5032 
     45 CA        -74.8909   22.9350  -74.0141 C.3       5 UNK         0.0783 
     46 C46       -74.6800   23.5513  -72.6050 C.3       11 UNK        -0.0857 
     47 S47       -75.8774   24.8651  -72.1593 S.3       11 UNK        -0.2512 
     48 C48       -74.8597   26.3417  -72.4736 C.3       11 UNK         0.0225 
     49 N         -76.1740   22.2368  -74.1003 N.am      5 UNK        -0.4615 
     50 C         -76.4961   21.3253  -75.0262 C.2       4 UNK         0.5053 
     51 O         -75.7151   20.9310  -75.8922 O.2       4 UNK        -0.5105 
     52 CA        -77.9282   20.7563  -74.9882 C.3       4 UNK         0.0263 
     53 CB        -77.9201   19.3248  -74.4268 C.3       4 UNK        -0.1981 
     54 N         -78.8902   21.5636  -74.2253 N.am      4 UNK        -0.4224 
     55 C         -79.2665   22.8108  -74.5384 C.2       3 UNK         0.4895 
     56 O         -78.7896   23.4539  -75.4751 O.2       3 UNK        -0.5091 
     57 CA        -80.3009   23.4647  -73.6067 C.3       3 UNK         0.0250 
     58 CB        -79.5889   24.2646  -72.5032 C.3       3 UNK        -0.1996 
     59 N         -81.2093   24.3598  -74.3246 N.am      3 UNK        -0.4254 
     60 C         -82.0812   23.9910  -75.2741 C.2       2 UNK         0.5004 
     61 O         -82.2687   22.8209  -75.6117 O.2       2 UNK        -0.5226 
     62 CA        -82.9095   25.1045  -75.9460 C.3       2 UNK         0.0269 
     63 CB        -84.3929   24.9866  -75.5561 C.3       2 UNK        -0.1926 
     64 N         -82.4483   26.4617  -75.6318 N.am      2 UNK        -0.4687 
     65 C         -81.3649   27.0480  -76.1629 C.2       1 UNK         0.5165 
     66 O         -80.6336   26.5046  -76.9896 O.2       1 UNK        -0.5079 
     67 H67       -85.2923   29.9137  -75.9604 H         1 UNK         0.0900 
     68 H68       -84.3213   30.5605  -74.6362 H         1 UNK         0.0900 
     69 H69       -84.4049   31.4257  -76.1717 H         1 UNK         0.0900 
     70 H70       -82.3775   29.4802  -74.3865 H         1 UNK         0.2959 
     71 H71       -80.5606   28.9849  -76.5293 H         1 UNK         0.1079 
     72 H72       -79.1653   27.8675  -74.7588 H         1 UNK         0.0837 
     73 H73       -80.4939   27.9642  -73.6347 H         1 UNK         0.0837 
     74 H74       -77.5288   29.5887  -75.2475 H         1 UNK         0.0685 
     75 H75       -77.3863   31.1145  -74.4160 H         1 UNK         0.0685 
     76 H76       -76.4258   27.6839  -74.2590 H         1 UNK         0.1434 
     77 H77       -74.9953   27.8561  -70.2252 H         1 UNK         0.1329 
     78 H78       -77.3603   31.0704  -71.7981 H         1 UNK         0.1335 
     79 H79       -77.0114   30.7707  -69.3172 H         1 UNK         0.0680 
     80 H80       -75.8865   29.5803  -68.7195 H         1 UNK         0.0680 
     81 H81       -72.6593   30.7647  -68.6870 H         1 UNK         0.1032 
     82 H82       -73.5014   29.4576  -69.4549 H         1 UNK         0.1032 
     83 H83       -72.0019   31.7371  -70.8349 H         1 UNK         0.0461 
     84 H84       -69.1765   29.6774  -70.2289 H         1 UNK         0.3453 
     85 H85       -69.9249   31.2370  -70.0071 H         1 UNK         0.3453 
     86 H86       -74.0789   30.2205  -71.9727 H         1 UNK         0.2984 
     87 H87       -74.4065   29.8811  -74.1770 H         1 UNK         0.0554 
     88 H88       -74.9350   32.2882  -73.8796 H         1 UNK         0.0847 
     89 H89       -75.1080   31.8338  -75.5667 H         1 UNK         0.0847 
     90 H90       -73.6886   32.7366  -75.0356 H         1 UNK         0.0847 
     91 H91       -72.5959   30.8779  -76.2811 H         1 UNK         0.3141 
     92 H92       -72.2448   29.2686  -78.0100 H         1 UNK         0.0743 
     93 H93       -70.0701   28.0421  -76.1963 H         1 UNK         0.0784 
     94 H94       -69.8471   28.4868  -77.8878 H         1 UNK         0.0784 
     95 H95       -70.1509   29.7299  -76.6841 H         1 UNK         0.0784 
     96 H96       -72.6412   26.6767  -76.8428 H         1 UNK         0.3213 
     97 H97       -73.3671   25.2370  -79.9731 H         1 UNK         0.0855 
     98 H98       -71.3109   24.2226  -77.9282 H         1 UNK         0.0814 
     99 H99       -71.0501   24.3555  -79.6625 H         1 UNK         0.0814 
    100 H100      -72.2368   23.2179  -79.0435 H         1 UNK         0.0814 
    101 H101      -73.5924   24.6646  -77.0769 H         1 UNK         0.3105 
    102 H102      -75.3998   26.4570  -76.0281 H         1 UNK         0.0547 
    103 H103      -77.8557   26.1014  -75.7890 H         1 UNK         0.0837 
    104 H104      -77.8949   25.3086  -77.3588 H         1 UNK         0.0837 
    105 H105      -77.4664   27.0093  -77.2381 H         1 UNK         0.0837 
    106 H106      -76.6674   23.9996  -75.5551 H         1 UNK         0.3020 
    107 H107      -74.1051   22.1913  -74.1672 H         1 UNK         0.1245 
    108 H108      -73.6631   23.9375  -72.5108 H         1 UNK         0.0781 
    109 H109      -74.7552   22.7657  -71.8515 H         1 UNK         0.0781 
    110 H110      -74.4739   26.3203  -73.4928 H         1 UNK         0.0836 
    111 H111      -73.9836   26.3205  -71.8231 H         1 UNK         0.0836 
    112 H112      -76.8734   22.5110  -73.4265 H         1 UNK         0.3022 
    113 H113      -78.2808   20.7162  -76.0210 H         1 UNK         0.0747 
    114 H114      -78.9089   18.8693  -74.4837 H         1 UNK         0.0793 
    115 H115      -77.2401   18.6862  -74.9928 H         1 UNK         0.0793 
    116 H116      -77.5970   19.3015  -73.3852 H         1 UNK         0.0793 
    117 H117      -79.3140   21.1158  -73.4250 H         1 UNK         0.3047 
    118 H118      -80.9039   22.6809  -73.1433 H         1 UNK         0.0822 
    119 H119      -80.3024   24.7058  -71.8070 H         1 UNK         0.0807 
    120 H120      -78.9816   25.0712  -72.9174 H         1 UNK         0.0807 
    121 H121      -78.9247   23.6258  -71.9194 H         1 UNK         0.0807 
    122 H122      -81.1210   25.3446  -74.1300 H         1 UNK         0.2946 
    123 H123      -82.8256   24.9533  -77.0248 H         1 UNK         0.1144 
    124 H124      -84.7888   24.0031  -75.8136 H         1 UNK         0.0793 
    125 H125      -85.0009   25.7243  -76.0804 H         1 UNK         0.0793 
    126 H126      -84.5415   25.1270  -74.4848 H         1 UNK         0.0793 
    127 H127      -83.0019   26.9913  -74.9734 H         1 UNK         0.2896 
@<TRIPOS>BOND
     1    1    2 1    
     2    1   67 1    
     3    1   68 1    
     4    1   69 1    
     5    2    3 2    
     6    2    4 am   BACKBONE|DICT|INTERRES
     7    4    5 1    
     8    4   70 1    
     9    5    6 1    
    10    5   65 1    
    11    5   71 1    
    12    6    7 1    
    13    6   72 1    
    14    6   73 1    
    15    7    8 1    
    16    8    9 1    
    17    8   74 1    
    18    8   75 1    
    19    9   10 ar   
    20    9   14 ar   
    21   10   11 ar   
    22   10   76 1    
    23   11   12 ar   
    24   11   48 1    
    25   12   13 ar   
    26   12   77 1    
    27   13   14 ar   
    28   13   15 1    
    29   14   78 1    
    30   15   16 1    
    31   15   79 1    
    32   15   80 1    
    33   16   17 1    
    34   17   18 1    
    35   17   81 1    
    36   17   82 1    
    37   18   19 1    
    38   18   22 1    
    39   18   83 1    
    40   19   20 am   BACKBONE|DICT|INTERRES
    41   19   21 2    
    42   20   84 1    
    43   20   85 1    
    44   22   23 am   BACKBONE|DICT|INTERRES
    45   22   86 1    
    46   23   24 2    
    47   23   25 1    
    48   25   26 1    
    49   25   27 1    
    50   25   87 1    
    51   26   88 1    
    52   26   89 1    
    53   26   90 1    
    54   27   28 am   BACKBONE|DICT|INTERRES
    55   27   91 1    
    56   28   29 2    
    57   28   30 1    
    58   30   31 1    
    59   30   32 1    
    60   30   92 1    
    61   31   93 1    
    62   31   94 1    
    63   31   95 1    
    64   32   33 am   BACKBONE|DICT|INTERRES
    65   32   96 1    
    66   33   34 2    
    67   33   35 1    
    68   35   36 1    
    69   35   37 1    
    70   35   97 1    
    71   36   98 1    
    72   36   99 1    
    73   36  100 1    
    74   37   38 am   BACKBONE|DICT|INTERRES
    75   37  101 1    
    76   38   39 2    
    77   38   40 1    
    78   40   41 1    
    79   40   42 1    
    80   40  102 1    
    81   41  103 1    
    82   41  104 1    
    83   41  105 1    
    84   42   43 am   BACKBONE|DICT|INTERRES
    85   42  106 1    
    86   43   44 2    
    87   43   45 1    
    88   45   46 1    
    89   45   49 1    
    90   45  107 1    
    91   46   47 1    
    92   46  108 1    
    93   46  109 1    
    94   47   48 1    
    95   48  110 1    
    96   48  111 1    
    97   49   50 am   BACKBONE|DICT|INTERRES
    98   49  112 1    
    99   50   51 2    
   100   50   52 1    
   101   52   53 1    
   102   52   54 1    
   103   52  113 1    
   104   53  114 1    
   105   53  115 1    
   106   53  116 1    
   107   54   55 am   BACKBONE|DICT|INTERRES
   108   54  117 1    
   109   55   56 2    
   110   55   57 1    
   111   57   58 1    
   112   57   59 1    
   113   57  118 1    
   114   58  119 1    
   115   58  120 1    
   116   58  121 1    
   117   59   60 am   BACKBONE|DICT|INTERRES
   118   59  122 1    
   119   60   61 2    
   120   60   62 1    
   121   62   63 1    
   122   62   64 1    
   123   62  123 1    
   124   63  124 1    
   125   63  125 1    
   126   63  126 1    
   127   64   65 am   BACKBONE|DICT|INTERRES
   128   64  127 1    
   129   65   66 2    
@<TRIPOS>SUBSTRUCTURE
     1 UNK         1 GROUP             0       ****    0 ROOT    
