@<TRIPOS>MOLECULE
3R135
127   129    1
SMALL
USER_CHARGES


@<TRIPOS>ATOM
      1 CA        -79.8891   25.0664  -72.2866 C.3       0 UNK        -0.1998 
      2 C         -79.7579   25.7061  -73.6592 C.2       0 UNK         0.4909 
      3 O         -78.8146   25.4050  -74.3934 O.2       0 UNK        -0.5240 
      4 N         -80.7053   26.5936  -73.9923 N.am      1 UNK        -0.4739 
      5 CA        -80.7629   27.4059  -75.2155 C.3       1 UNK         0.0864 
      6 C6        -79.7086   28.5463  -75.2321 C.3       11 UNK        -0.0881 
      7 S7        -80.0338   29.7858  -73.9322 S.3       11 UNK        -0.2682 
      8 C8        -78.4164   30.6248  -73.8153 C.3       11 UNK         0.0289 
      9 C9        -77.4895   30.0850  -72.7252 C.ar      11 UNK        -0.0687 
     10 C10       -77.5012   28.7408  -72.3337 C.ar      11 UNK        -0.0823 
     11 C11       -76.6477   28.2806  -71.3269 C.ar      11 UNK        -0.0830 
     12 C12       -75.7673   29.1727  -70.7104 C.ar      11 UNK        -0.1021 
     13 C13       -75.7215   30.5114  -71.1084 C.ar      11 UNK        -0.0753 
     14 C14       -76.5874   30.9600  -72.1103 C.ar      11 UNK        -0.0933 
     15 C15       -74.7538   31.4824  -70.4478 C.3       11 UNK         0.0166 
     16 S16       -73.1962   31.6283  -71.3795 S.3       11 UNK        -0.2615 
     17 C17       -72.2716   30.1738  -70.7736 C.3       11 UNK        -0.0865 
     18 CA        -71.1819   29.6949  -71.7654 C.3       10 UNK         0.0862 
     19 C         -70.3577   28.5344  -71.1418 C.2       10 UNK         0.5551 
     20 N         -69.2586   28.8473  -70.4695 N.am      10 UNK        -0.7319 
     21 O         -70.7308   27.3656  -71.2220 O.2       10 UNK        -0.5018 
     22 N         -71.7661   29.3507  -73.0686 N.am      10 UNK        -0.4509 
     23 C         -71.0816   29.0210  -74.1714 C.2       10 UNK         0.4899 
     24 O         -69.8523   28.9854  -74.2370 O.2       10 UNK        -0.4839 
     25 CA        -71.9069   28.6898  -75.4276 C.3       9 UNK         0.0222 
     26 CB        -72.0978   27.1709  -75.5581 C.3       9 UNK        -0.1966 
     27 N         -73.2185   29.3416  -75.4508 N.am      9 UNK        -0.4218 
     28 C         -73.4343   30.6543  -75.5992 C.2       9 UNK         0.5020 
     29 O         -72.5378   31.4810  -75.7778 O.2       9 UNK        -0.5274 
     30 CA        -74.9085   31.1011  -75.5618 C.3       8 UNK         0.0270 
     31 CB        -75.0741   32.6316  -75.5878 C.3       8 UNK        -0.1976 
     32 N         -75.6917   30.5113  -76.6528 N.am      8 UNK        -0.4313 
     33 C         -76.1140   29.2411  -76.6905 C.2       8 UNK         0.5041 
     34 O         -75.8874   28.4376  -75.7812 O.2       8 UNK        -0.5577 
     35 CA        -76.9474   28.8206  -77.9181 C.3       7 UNK         0.0284 
     36 CB        -76.3243   29.2740  -79.2575 C.3       7 UNK        -0.1958 
     37 N         -77.2314   27.3806  -77.9037 N.am      7 UNK        -0.4454 
     38 C         -76.3710   26.3702  -78.0848 C.2       7 UNK         0.5089 
     39 O         -75.2297   26.4940  -78.5341 O.2       7 UNK        -0.5125 
     40 CA        -76.8809   24.9918  -77.6272 C.3       6 UNK         0.0408 
     41 CB        -76.3219   23.8313  -78.4772 C.3       6 UNK        -0.1791 
     42 N         -76.6147   24.8011  -76.1947 N.am      6 UNK        -0.4762 
     43 C         -75.4145   24.7110  -75.5923 C.2       6 UNK         0.5007 
     44 O         -74.3369   24.6684  -76.1848 O.2       6 UNK        -0.5032 
     45 CA        -75.4127   24.5785  -74.0610 C.3       5 UNK         0.0783 
     46 C46       -75.6321   25.9462  -73.3732 C.3       11 UNK        -0.0857 
     47 S47       -75.2959   25.8696  -71.5834 S.3       11 UNK        -0.2512 
     48 C48       -76.6850   26.8220  -70.8947 C.3       11 UNK         0.0225 
     49 N         -76.3830   23.5448  -73.6773 N.am      5 UNK        -0.4615 
     50 C         -76.0302   22.2779  -73.4195 C.2       4 UNK         0.5053 
     51 O         -74.8655   21.9088  -73.2651 O.2       4 UNK        -0.5105 
     52 CA        -77.1367   21.2158  -73.4076 C.3       4 UNK         0.0263 
     53 CB        -77.9560   21.2215  -72.1003 C.3       4 UNK        -0.1981 
     54 N         -77.9295   21.2627  -74.6454 N.am      4 UNK        -0.4224 
     55 C         -79.0715   21.9119  -74.9025 C.2       3 UNK         0.4895 
     56 O         -79.7592   22.4888  -74.0608 O.2       3 UNK        -0.5091 
     57 CA        -79.5395   21.8937  -76.3606 C.3       3 UNK         0.0250 
     58 CB        -80.2614   20.5716  -76.6870 C.3       3 UNK        -0.1996 
     59 N         -80.4349   23.0277  -76.5709 N.am      3 UNK        -0.4254 
     60 C         -80.8041   23.5293  -77.7541 C.2       2 UNK         0.5004 
     61 O         -80.3940   23.1076  -78.8359 O.2       2 UNK        -0.5226 
     62 CA        -81.8150   24.6874  -77.7350 C.3       2 UNK         0.0269 
     63 CB        -83.2521   24.1414  -77.7688 C.3       2 UNK        -0.1926 
     64 N         -81.6619   25.5726  -76.5761 N.am      2 UNK        -0.4687 
     65 C         -80.7383   26.5401  -76.4942 C.2       1 UNK         0.5165 
     66 O         -79.9023   26.7551  -77.3729 O.2       1 UNK        -0.5079 
     67 H67       -80.1050   25.8147  -71.5245 H         1 UNK         0.0900 
     68 H68       -78.9670   24.5559  -72.0125 H         1 UNK         0.0900 
     69 H69       -80.6927   24.3305  -72.2882 H         1 UNK         0.0900 
     70 H70       -81.4498   26.7724  -73.3326 H         1 UNK         0.2959 
     71 H71       -81.7465   27.8792  -75.2201 H         1 UNK         0.1079 
     72 H72       -78.6998   28.1428  -75.1258 H         1 UNK         0.0837 
     73 H73       -79.7300   29.0782  -76.1847 H         1 UNK         0.0837 
     74 H74       -77.9082   30.5802  -74.7774 H         1 UNK         0.0685 
     75 H75       -78.6151   31.6810  -73.6274 H         1 UNK         0.0685 
     76 H76       -78.1781   28.0468  -72.8080 H         1 UNK         0.1434 
     77 H77       -75.1148   28.8180  -69.9248 H         1 UNK         0.1329 
     78 H78       -76.5550   31.9978  -72.4135 H         1 UNK         0.1335 
     79 H79       -74.5443   31.1803  -69.4204 H         1 UNK         0.0680 
     80 H80       -75.2147   32.4692  -70.3837 H         1 UNK         0.0680 
     81 H81       -72.9641   29.3579  -70.5663 H         1 UNK         0.1032 
     82 H82       -71.8240   30.4422  -69.8145 H         1 UNK         0.1032 
     83 H83       -70.4999   30.5292  -71.9427 H         1 UNK         0.0461 
     84 H84       -68.9499   29.8040  -70.3899 H         1 UNK         0.3453 
     85 H85       -68.7187   28.1105  -70.0430 H         1 UNK         0.3453 
     86 H86       -72.7736   29.3560  -73.1133 H         1 UNK         0.2984 
     87 H87       -71.3445   29.0393  -76.2958 H         1 UNK         0.0554 
     88 H88       -72.6443   26.9146  -76.4667 H         1 UNK         0.0847 
     89 H89       -72.6458   26.7569  -74.7110 H         1 UNK         0.0847 
     90 H90       -71.1359   26.6587  -75.6039 H         1 UNK         0.0847 
     91 H91       -74.0440   28.7483  -75.3845 H         1 UNK         0.3141 
     92 H92       -75.3147   30.7467  -74.6132 H         1 UNK         0.0743 
     93 H93       -74.5281   33.0949  -74.7645 H         1 UNK         0.0784 
     94 H94       -74.6973   33.0648  -76.5152 H         1 UNK         0.0784 
     95 H95       -76.1202   32.9190  -75.4811 H         1 UNK         0.0784 
     96 H96       -75.8864   31.1122  -77.4406 H         1 UNK         0.3213 
     97 H97       -77.9159   29.3120  -77.8194 H         1 UNK         0.0855 
     98 H98       -76.3658   30.3577  -79.3688 H         1 UNK         0.0814 
     99 H99       -76.8591   28.8483  -80.1066 H         1 UNK         0.0814 
    100 H100      -75.2774   28.9800  -79.3416 H         1 UNK         0.0814 
    101 H101      -78.1642   27.1367  -77.5718 H         1 UNK         0.3105 
    102 H102      -77.9653   24.9752  -77.7415 H         1 UNK         0.0547 
    103 H103      -76.6312   23.9365  -79.5175 H         1 UNK         0.0837 
    104 H104      -75.2324   23.7979  -78.4698 H         1 UNK         0.0837 
    105 H105      -76.6876   22.8675  -78.1260 H         1 UNK         0.0837 
    106 H106      -77.4282   24.9130  -75.5920 H         1 UNK         0.3020 
    107 H107      -74.4037   24.2576  -73.7901 H         1 UNK         0.1245 
    108 H108      -76.6395   26.3154  -73.5535 H         1 UNK         0.0781 
    109 H109      -74.9635   26.7003  -73.7924 H         1 UNK         0.0781 
    110 H110      -76.6461   26.7646  -69.8060 H         1 UNK         0.0836 
    111 H111      -77.6244   26.3561  -71.1877 H         1 UNK         0.0836 
    112 H112      -77.3615   23.7756  -73.7995 H         1 UNK         0.3022 
    113 H113      -76.6330   20.2482  -73.4446 H         1 UNK         0.0747 
    114 H114      -78.7491   20.4742  -72.1235 H         1 UNK         0.0793 
    115 H115      -77.3170   20.9914  -71.2471 H         1 UNK         0.0793 
    116 H116      -78.4107   22.1915  -71.9020 H         1 UNK         0.0793 
    117 H117      -77.4790   20.8105  -75.4297 H         1 UNK         0.3047 
    118 H118      -78.6689   22.0103  -77.0086 H         1 UNK         0.0822 
    119 H119      -80.5691   20.5302  -77.7319 H         1 UNK         0.0807 
    120 H120      -81.1519   20.4396  -76.0712 H         1 UNK         0.0807 
    121 H121      -79.6122   19.7131  -76.5109 H         1 UNK         0.0807 
    122 H122      -80.7632   23.4575  -75.7147 H         1 UNK         0.2946 
    123 H123      -81.6550   25.2711  -78.6451 H         1 UNK         0.1144 
    124 H124      -83.9817   24.9484  -77.8385 H         1 UNK         0.0793 
    125 H125      -83.4837   23.5536  -76.8796 H         1 UNK         0.0793 
    126 H126      -83.4031   23.4950  -78.6347 H         1 UNK         0.0793 
    127 H127      -82.3033   25.4436  -75.8065 H         1 UNK         0.2896 
@<TRIPOS>BOND
     1    1    2 1    
     2    1   67 1    
     3    1   68 1    
     4    1   69 1    
     5    2    3 2    
     6    2    4 am   BACKBONE|DICT|INTERRES
     7    4    5 1    
     8    4   70 1    
     9    5    6 1    
    10    5   65 1    
    11    5   71 1    
    12    6    7 1    
    13    6   72 1    
    14    6   73 1    
    15    7    8 1    
    16    8    9 1    
    17    8   74 1    
    18    8   75 1    
    19    9   10 ar   
    20    9   14 ar   
    21   10   11 ar   
    22   10   76 1    
    23   11   12 ar   
    24   11   48 1    
    25   12   13 ar   
    26   12   77 1    
    27   13   14 ar   
    28   13   15 1    
    29   14   78 1    
    30   15   16 1    
    31   15   79 1    
    32   15   80 1    
    33   16   17 1    
    34   17   18 1    
    35   17   81 1    
    36   17   82 1    
    37   18   19 1    
    38   18   22 1    
    39   18   83 1    
    40   19   20 am   BACKBONE|DICT|INTERRES
    41   19   21 2    
    42   20   84 1    
    43   20   85 1    
    44   22   23 am   BACKBONE|DICT|INTERRES
    45   22   86 1    
    46   23   24 2    
    47   23   25 1    
    48   25   26 1    
    49   25   27 1    
    50   25   87 1    
    51   26   88 1    
    52   26   89 1    
    53   26   90 1    
    54   27   28 am   BACKBONE|DICT|INTERRES
    55   27   91 1    
    56   28   29 2    
    57   28   30 1    
    58   30   31 1    
    59   30   32 1    
    60   30   92 1    
    61   31   93 1    
    62   31   94 1    
    63   31   95 1    
    64   32   33 am   BACKBONE|DICT|INTERRES
    65   32   96 1    
    66   33   34 2    
    67   33   35 1    
    68   35   36 1    
    69   35   37 1    
    70   35   97 1    
    71   36   98 1    
    72   36   99 1    
    73   36  100 1    
    74   37   38 am   BACKBONE|DICT|INTERRES
    75   37  101 1    
    76   38   39 2    
    77   38   40 1    
    78   40   41 1    
    79   40   42 1    
    80   40  102 1    
    81   41  103 1    
    82   41  104 1    
    83   41  105 1    
    84   42   43 am   BACKBONE|DICT|INTERRES
    85   42  106 1    
    86   43   44 2    
    87   43   45 1    
    88   45   46 1    
    89   45   49 1    
    90   45  107 1    
    91   46   47 1    
    92   46  108 1    
    93   46  109 1    
    94   47   48 1    
    95   48  110 1    
    96   48  111 1    
    97   49   50 am   BACKBONE|DICT|INTERRES
    98   49  112 1    
    99   50   51 2    
   100   50   52 1    
   101   52   53 1    
   102   52   54 1    
   103   52  113 1    
   104   53  114 1    
   105   53  115 1    
   106   53  116 1    
   107   54   55 am   BACKBONE|DICT|INTERRES
   108   54  117 1    
   109   55   56 2    
   110   55   57 1    
   111   57   58 1    
   112   57   59 1    
   113   57  118 1    
   114   58  119 1    
   115   58  120 1    
   116   58  121 1    
   117   59   60 am   BACKBONE|DICT|INTERRES
   118   59  122 1    
   119   60   61 2    
   120   60   62 1    
   121   62   63 1    
   122   62   64 1    
   123   62  123 1    
   124   63  124 1    
   125   63  125 1    
   126   63  126 1    
   127   64   65 am   BACKBONE|DICT|INTERRES
   128   64  127 1    
   129   65   66 2    
@<TRIPOS>SUBSTRUCTURE
     1 UNK         1 GROUP             0       ****    0 ROOT    
