@<TRIPOS>MOLECULE
3R135
127   129    1
SMALL
USER_CHARGES


@<TRIPOS>ATOM
      1 CA        -84.7757   27.8233  -73.0965 C.3       0 UNK        -0.1998 
      2 C         -83.4330   28.0030  -72.3937 C.2       0 UNK         0.4909 
      3 O         -83.3630   27.8515  -71.1760 O.2       0 UNK        -0.5240 
      4 N         -82.3419   28.3260  -73.1026 N.am      1 UNK        -0.4739 
      5 CA        -82.2393   28.4942  -74.5600 C.3       1 UNK         0.0864 
      6 C6        -81.0490   29.4138  -74.9442 C.3       11 UNK        -0.0881 
      7 S7        -79.4235   28.8144  -74.3656 S.3       11 UNK        -0.2682 
      8 C8        -79.1468   29.8528  -72.8964 C.3       11 UNK         0.0289 
      9 C9        -78.1031   29.2303  -71.9821 C.ar      11 UNK        -0.0687 
     10 C10       -78.3565   27.9889  -71.3914 C.ar      11 UNK        -0.0823 
     11 C11       -77.4075   27.3885  -70.5624 C.ar      11 UNK        -0.0830 
     12 C12       -76.2045   28.0504  -70.3036 C.ar      11 UNK        -0.1021 
     13 C13       -75.9454   29.3015  -70.8717 C.ar      11 UNK        -0.0753 
     14 C14       -76.8963   29.8862  -71.7155 C.ar      11 UNK        -0.0933 
     15 C15       -74.6440   30.0212  -70.5533 C.3       11 UNK         0.0166 
     16 S16       -73.4215   29.8139  -71.8842 S.3       11 UNK        -0.2615 
     17 C17       -73.4521   31.4727  -72.6520 C.3       11 UNK        -0.0865 
     18 CA        -72.2782   31.7238  -73.6338 C.3       10 UNK         0.0862 
     19 C         -70.9009   31.8064  -72.9064 C.2       10 UNK         0.5551 
     20 N         -69.9458   30.9215  -73.1724 N.am      10 UNK        -0.7319 
     21 O         -70.6942   32.7037  -72.0928 O.2       10 UNK        -0.5018 
     22 N         -72.3274   30.7893  -74.7651 N.am      10 UNK        -0.4509 
     23 C         -71.7048   30.9644  -75.9367 C.2       10 UNK         0.4899 
     24 O         -71.1147   32.0003  -76.2479 O.2       10 UNK        -0.4839 
     25 CA        -71.7509   29.7805  -76.9229 C.3       9 UNK         0.0222 
     26 CB        -70.5528   29.7723  -77.8956 C.3       9 UNK        -0.1966 
     27 N         -71.8965   28.4702  -76.2731 N.am      9 UNK        -0.4218 
     28 C         -71.0594   27.8940  -75.3923 C.2       9 UNK         0.5020 
     29 O         -70.0482   28.4466  -74.9552 O.2       9 UNK        -0.5274 
     30 CA        -71.4068   26.4783  -74.8840 C.3       8 UNK         0.0270 
     31 CB        -71.8324   26.5313  -73.4074 C.3       8 UNK        -0.1976 
     32 N         -72.4549   25.8097  -75.6626 N.am      8 UNK        -0.4313 
     33 C         -72.3017   25.3599  -76.9188 C.2       8 UNK         0.5041 
     34 O         -71.2161   25.3376  -77.5001 O.2       8 UNK        -0.5577 
     35 CA        -73.5592   24.8907  -77.6816 C.3       7 UNK         0.0284 
     36 CB        -73.6114   23.3551  -77.7308 C.3       7 UNK        -0.1958 
     37 N         -74.8304   25.3899  -77.1478 N.am      7 UNK        -0.4454 
     38 C         -75.1656   26.6730  -76.9466 C.2       7 UNK         0.5089 
     39 O         -74.4578   27.6253  -77.2739 O.2       7 UNK        -0.5125 
     40 CA        -76.4806   26.9363  -76.1911 C.3       6 UNK         0.0408 
     41 CB        -77.6122   27.1834  -77.1998 C.3       6 UNK        -0.1791 
     42 N         -76.8640   25.8549  -75.2730 N.am      6 UNK        -0.4762 
     43 C         -76.1170   25.3728  -74.2642 C.2       6 UNK         0.5007 
     44 O         -74.9947   25.7971  -73.9873 O.2       6 UNK        -0.5032 
     45 CA        -76.6732   24.1530  -73.5052 C.3       5 UNK         0.0783 
     46 C46       -77.6424   24.5460  -72.3603 C.3       11 UNK        -0.0857 
     47 S47       -76.7642   24.7007  -70.7679 S.3       11 UNK        -0.2512 
     48 C48       -77.6862   26.0307  -69.9375 C.3       11 UNK         0.0225 
     49 N         -77.2938   23.2177  -74.4458 N.am      5 UNK        -0.4615 
     50 C         -76.6559   22.1888  -75.0199 C.2       4 UNK         0.5053 
     51 O         -75.4889   21.8841  -74.7744 O.2       4 UNK        -0.5105 
     52 CA        -77.4421   21.3489  -76.0428 C.3       4 UNK         0.0263 
     53 CB        -78.0507   20.1114  -75.3638 C.3       4 UNK        -0.1981 
     54 N         -78.5024   22.0929  -76.7260 N.am      4 UNK        -0.4224 
     55 C         -78.2951   23.1045  -77.5800 C.2       3 UNK         0.4895 
     56 O         -77.1801   23.5137  -77.9040 O.2       3 UNK        -0.5091 
     57 CA        -79.5489   23.8040  -78.1337 C.3       3 UNK         0.0250 
     58 CB        -80.0586   23.0733  -79.3862 C.3       3 UNK        -0.1996 
     59 N         -80.6497   23.9519  -77.1711 N.am      3 UNK        -0.4254 
     60 C         -80.5608   24.5348  -75.9668 C.2       2 UNK         0.5004 
     61 O         -79.5035   24.9107  -75.4567 O.2       2 UNK        -0.5226 
     62 CA        -81.8640   24.6897  -75.1713 C.3       2 UNK         0.0269 
     63 CB        -81.9172   23.6623  -74.0289 C.3       2 UNK        -0.1926 
     64 N         -81.9712   26.0371  -74.6099 N.am      2 UNK        -0.4687 
     65 C         -82.2051   27.1490  -75.3237 C.2       1 UNK         0.5165 
     66 O         -82.4220   27.1413  -76.5363 O.2       1 UNK        -0.5079 
     67 H67       -85.0800   28.7420  -73.5968 H         1 UNK         0.0900 
     68 H68       -85.5518   27.5706  -72.3741 H         1 UNK         0.0900 
     69 H69       -84.7340   27.0175  -73.8282 H         1 UNK         0.0900 
     70 H70       -81.4690   28.4378  -72.6087 H         1 UNK         0.2959 
     71 H71       -83.1406   29.0040  -74.9051 H         1 UNK         0.1079 
     72 H72       -80.9986   29.5363  -76.0280 H         1 UNK         0.0837 
     73 H73       -81.2197   30.4175  -74.5516 H         1 UNK         0.0837 
     74 H74       -78.8447   30.8509  -73.2175 H         1 UNK         0.0685 
     75 H75       -80.0764   29.9724  -72.3389 H         1 UNK         0.0685 
     76 H76       -79.2902   27.4827  -71.5937 H         1 UNK         0.1434 
     77 H77       -75.4693   27.5882  -69.6587 H         1 UNK         0.1329 
     78 H78       -76.6953   30.8507  -72.1610 H         1 UNK         0.1335 
     79 H79       -74.8418   31.0776  -70.3672 H         1 UNK         0.0680 
     80 H80       -74.2153   29.6314  -69.6287 H         1 UNK         0.0680 
     81 H81       -73.4489   32.2338  -71.8693 H         1 UNK         0.1032 
     82 H82       -74.4018   31.5919  -73.1757 H         1 UNK         0.1032 
     83 H83       -72.4369   32.7200  -74.0514 H         1 UNK         0.0461 
     84 H84       -69.0613   30.9947  -72.6962 H         1 UNK         0.3453 
     85 H85       -70.0995   30.1695  -73.8349 H         1 UNK         0.3453 
     86 H86       -72.7714   29.9018  -74.5810 H         1 UNK         0.2984 
     87 H87       -72.6553   29.9207  -77.5166 H         1 UNK         0.0554 
     88 H88       -70.6127   28.9353  -78.5912 H         1 UNK         0.0847 
     89 H89       -69.6025   29.7004  -77.3654 H         1 UNK         0.0847 
     90 H90       -70.5238   30.6851  -78.4919 H         1 UNK         0.0847 
     91 H91       -72.7327   27.9592  -76.5482 H         1 UNK         0.3141 
     92 H92       -70.4973   25.8784  -74.9547 H         1 UNK         0.0743 
     93 H93       -72.7355   27.1272  -73.2702 H         1 UNK         0.0784 
     94 H94       -72.0277   25.5340  -73.0130 H         1 UNK         0.0784 
     95 H95       -71.0526   26.9781  -72.7890 H         1 UNK         0.0784 
     96 H96       -73.3779   25.7775  -75.2380 H         1 UNK         0.3213 
     97 H97       -73.4713   25.2656  -78.7032 H         1 UNK         0.0855 
     98 H98       -73.7304   22.9250  -76.7355 H         1 UNK         0.0814 
     99 H99       -72.6944   22.9450  -78.1565 H         1 UNK         0.0814 
    100 H100      -74.4384   23.0043  -78.3487 H         1 UNK         0.0814 
    101 H101      -75.5233   24.6904  -76.9100 H         1 UNK         0.3105 
    102 H102      -76.3501   27.8369  -75.5878 H         1 UNK         0.0547 
    103 H103      -78.5810   27.2825  -76.7115 H         1 UNK         0.0837 
    104 H104      -77.6838   26.3722  -77.9231 H         1 UNK         0.0837 
    105 H105      -77.4350   28.1014  -77.7612 H         1 UNK         0.0837 
    106 H106      -77.7981   25.4686  -75.4047 H         1 UNK         0.3020 
    107 H107      -75.8096   23.6533  -73.0592 H         1 UNK         0.1245 
    108 H108      -78.3990   23.7723  -72.2192 H         1 UNK         0.0781 
    109 H109      -78.1978   25.4550  -72.5963 H         1 UNK         0.0781 
    110 H110      -77.3992   26.0536  -68.8852 H         1 UNK         0.0836 
    111 H111      -78.7528   25.8007  -69.9559 H         1 UNK         0.0836 
    112 H112      -78.2311   23.4512  -74.7521 H         1 UNK         0.3022 
    113 H113      -76.7314   21.0097  -76.7997 H         1 UNK         0.0747 
    114 H114      -78.5390   19.4598  -76.0887 H         1 UNK         0.0793 
    115 H115      -77.2795   19.5198  -74.8679 H         1 UNK         0.0793 
    116 H116      -78.7869   20.3861  -74.6072 H         1 UNK         0.0793 
    117 H117      -79.4547   21.8303  -76.5176 H         1 UNK         0.3047 
    118 H118      -79.2541   24.8098  -78.4339 H         1 UNK         0.0822 
    119 H119      -80.8708   23.6217  -79.8639 H         1 UNK         0.0807 
    120 H120      -80.4210   22.0714  -79.1521 H         1 UNK         0.0807 
    121 H121      -79.2644   22.9675  -80.1270 H         1 UNK         0.0807 
    122 H122      -81.5599   23.6565  -77.4945 H         1 UNK         0.2946 
    123 H123      -82.7158   24.5235  -75.8349 H         1 UNK         0.1144 
    124 H124      -81.0889   23.7907  -73.3304 H         1 UNK         0.0793 
    125 H125      -81.8627   22.6437  -74.4155 H         1 UNK         0.0793 
    126 H126      -82.8466   23.7440  -73.4650 H         1 UNK         0.0793 
    127 H127      -81.7655   26.1394  -73.6271 H         1 UNK         0.2896 
@<TRIPOS>BOND
     1    1    2 1    
     2    1   67 1    
     3    1   68 1    
     4    1   69 1    
     5    2    3 2    
     6    2    4 am   BACKBONE|DICT|INTERRES
     7    4    5 1    
     8    4   70 1    
     9    5    6 1    
    10    5   65 1    
    11    5   71 1    
    12    6    7 1    
    13    6   72 1    
    14    6   73 1    
    15    7    8 1    
    16    8    9 1    
    17    8   74 1    
    18    8   75 1    
    19    9   10 ar   
    20    9   14 ar   
    21   10   11 ar   
    22   10   76 1    
    23   11   12 ar   
    24   11   48 1    
    25   12   13 ar   
    26   12   77 1    
    27   13   14 ar   
    28   13   15 1    
    29   14   78 1    
    30   15   16 1    
    31   15   79 1    
    32   15   80 1    
    33   16   17 1    
    34   17   18 1    
    35   17   81 1    
    36   17   82 1    
    37   18   19 1    
    38   18   22 1    
    39   18   83 1    
    40   19   20 am   BACKBONE|DICT|INTERRES
    41   19   21 2    
    42   20   84 1    
    43   20   85 1    
    44   22   23 am   BACKBONE|DICT|INTERRES
    45   22   86 1    
    46   23   24 2    
    47   23   25 1    
    48   25   26 1    
    49   25   27 1    
    50   25   87 1    
    51   26   88 1    
    52   26   89 1    
    53   26   90 1    
    54   27   28 am   BACKBONE|DICT|INTERRES
    55   27   91 1    
    56   28   29 2    
    57   28   30 1    
    58   30   31 1    
    59   30   32 1    
    60   30   92 1    
    61   31   93 1    
    62   31   94 1    
    63   31   95 1    
    64   32   33 am   BACKBONE|DICT|INTERRES
    65   32   96 1    
    66   33   34 2    
    67   33   35 1    
    68   35   36 1    
    69   35   37 1    
    70   35   97 1    
    71   36   98 1    
    72   36   99 1    
    73   36  100 1    
    74   37   38 am   BACKBONE|DICT|INTERRES
    75   37  101 1    
    76   38   39 2    
    77   38   40 1    
    78   40   41 1    
    79   40   42 1    
    80   40  102 1    
    81   41  103 1    
    82   41  104 1    
    83   41  105 1    
    84   42   43 am   BACKBONE|DICT|INTERRES
    85   42  106 1    
    86   43   44 2    
    87   43   45 1    
    88   45   46 1    
    89   45   49 1    
    90   45  107 1    
    91   46   47 1    
    92   46  108 1    
    93   46  109 1    
    94   47   48 1    
    95   48  110 1    
    96   48  111 1    
    97   49   50 am   BACKBONE|DICT|INTERRES
    98   49  112 1    
    99   50   51 2    
   100   50   52 1    
   101   52   53 1    
   102   52   54 1    
   103   52  113 1    
   104   53  114 1    
   105   53  115 1    
   106   53  116 1    
   107   54   55 am   BACKBONE|DICT|INTERRES
   108   54  117 1    
   109   55   56 2    
   110   55   57 1    
   111   57   58 1    
   112   57   59 1    
   113   57  118 1    
   114   58  119 1    
   115   58  120 1    
   116   58  121 1    
   117   59   60 am   BACKBONE|DICT|INTERRES
   118   59  122 1    
   119   60   61 2    
   120   60   62 1    
   121   62   63 1    
   122   62   64 1    
   123   62  123 1    
   124   63  124 1    
   125   63  125 1    
   126   63  126 1    
   127   64   65 am   BACKBONE|DICT|INTERRES
   128   64  127 1    
   129   65   66 2    
@<TRIPOS>SUBSTRUCTURE
     1 UNK         1 GROUP             0       ****    0 ROOT    
