@<TRIPOS>MOLECULE
3R135
127   129    1
SMALL
USER_CHARGES


@<TRIPOS>ATOM
      1 CA        -85.0739   27.3261  -72.1696 C.3       0 UNK        -0.1998 
      2 C         -83.8342   26.4651  -72.3602 C.2       0 UNK         0.4909 
      3 O         -83.9396   25.2387  -72.3585 O.2       0 UNK        -0.5240 
      4 N         -82.6651   27.1030  -72.5215 N.am      1 UNK        -0.4739 
      5 CA        -81.3570   26.4698  -72.7449 C.3       1 UNK         0.0864 
      6 C6        -80.8700   25.6472  -71.5150 C.3       11 UNK        -0.0881 
      7 S7        -79.0635   25.7416  -71.2521 S.3       11 UNK        -0.2682 
      8 C8        -78.8859   27.1352  -70.0864 C.3       11 UNK         0.0289 
      9 C9        -77.9996   28.2188  -70.6817 C.ar      11 UNK        -0.0687 
     10 C10       -78.4900   29.0125  -71.7191 C.ar      11 UNK        -0.0823 
     11 C11       -77.6698   29.9426  -72.3563 C.ar      11 UNK        -0.0830 
     12 C12       -76.3676   30.1413  -71.8924 C.ar      11 UNK        -0.1021 
     13 C13       -75.8786   29.3934  -70.8167 C.ar      11 UNK        -0.0753 
     14 C14       -76.6916   28.4187  -70.2253 C.ar      11 UNK        -0.0933 
     15 C15       -74.4699   29.6461  -70.3058 C.3       11 UNK         0.0166 
     16 S16       -73.2567   28.6573  -71.2273 S.3       11 UNK        -0.2615 
     17 C17       -71.7960   29.7524  -71.1814 C.3       11 UNK        -0.0865 
     18 CA        -71.6777   30.6312  -72.4559 C.3       10 UNK         0.0862 
     19 C         -70.5118   31.6541  -72.3283 C.2       10 UNK         0.5551 
     20 N         -69.5035   31.6283  -73.1915 N.am      10 UNK        -0.7319 
     21 O         -70.5281   32.4926  -71.4305 O.2       10 UNK        -0.5018 
     22 N         -71.6349   29.8047  -73.6719 N.am      10 UNK        -0.4509 
     23 C         -72.0068   30.1856  -74.8977 C.2       10 UNK         0.4899 
     24 O         -72.4055   31.3191  -75.1665 O.2       10 UNK        -0.4839 
     25 CA        -71.9482   29.1295  -76.0201 C.3       9 UNK         0.0222 
     26 CB        -70.6266   29.2241  -76.8071 C.3       9 UNK        -0.1966 
     27 N         -72.2278   27.7491  -75.5899 N.am      9 UNK        -0.4218 
     28 C         -71.4962   26.9460  -74.8019 C.2       9 UNK         0.5020 
     29 O         -70.4205   27.2760  -74.3003 O.2       9 UNK        -0.5274 
     30 CA        -72.0679   25.5598  -74.4672 C.3       8 UNK         0.0270 
     31 CB        -72.8240   25.6045  -73.1311 C.3       8 UNK        -0.1976 
     32 N         -72.9399   25.0108  -75.5094 N.am      8 UNK        -0.4313 
     33 C         -72.4807   24.4672  -76.6463 C.2       8 UNK         0.5041 
     34 O         -71.2874   24.4242  -76.9500 O.2       8 UNK        -0.5577 
     35 CA        -73.5137   23.8390  -77.5957 C.3       7 UNK         0.0284 
     36 CB        -74.0008   22.4877  -77.0478 C.3       7 UNK        -0.1958 
     37 N         -74.6587   24.7112  -77.8557 N.am      7 UNK        -0.4454 
     38 C         -74.6037   25.8398  -78.5766 C.2       7 UNK         0.5089 
     39 O         -73.5858   26.2509  -79.1342 O.2       7 UNK        -0.5125 
     40 CA        -75.9009   26.6634  -78.6796 C.3       6 UNK         0.0408 
     41 CB        -76.8184   26.1058  -79.7787 C.3       6 UNK        -0.1791 
     42 N         -76.6394   26.7480  -77.4168 N.am      6 UNK        -0.4762 
     43 C         -76.1519   27.2778  -76.2837 C.2       6 UNK         0.5007 
     44 O         -75.0175   27.7424  -76.1738 O.2       6 UNK        -0.5032 
     45 CA        -77.0748   27.2239  -75.0507 C.3       5 UNK         0.0783 
     46 C46       -78.1976   28.2950  -75.1305 C.3       11 UNK        -0.0857 
     47 S47       -77.5616   30.0142  -75.1229 S.3       11 UNK        -0.2512 
     48 C48       -78.1913   30.7085  -73.5604 C.3       11 UNK         0.0225 
     49 N         -77.5965   25.8598  -74.8780 N.am      5 UNK        -0.4615 
     50 C         -76.8267   24.7910  -74.6095 C.2       4 UNK         0.5053 
     51 O         -75.6204   24.8621  -74.3822 O.2       4 UNK        -0.5105 
     52 CA        -77.4713   23.3968  -74.6887 C.3       4 UNK         0.0263 
     53 CB        -77.9943   22.9235  -73.3254 C.3       4 UNK        -0.1981 
     54 N         -78.5300   23.3243  -75.6960 N.am      4 UNK        -0.4224 
     55 C         -78.2862   23.3067  -77.0152 C.2       3 UNK         0.4895 
     56 O         -77.1537   23.3101  -77.4955 O.2       3 UNK        -0.5091 
     57 CA        -79.4936   23.3262  -77.9678 C.3       3 UNK         0.0250 
     58 CB        -79.9159   21.8935  -78.3284 C.3       3 UNK        -0.1996 
     59 N         -80.6487   24.0588  -77.4456 N.am      3 UNK        -0.4254 
     60 C         -80.6512   25.3570  -77.1137 C.2       2 UNK         0.5004 
     61 O         -79.6645   26.0880  -77.2207 O.2       2 UNK        -0.5226 
     62 CA        -81.9561   25.9353  -76.5314 C.3       2 UNK         0.0269 
     63 CB        -83.1655   24.9750  -76.6096 C.3       2 UNK        -0.1926 
     64 N         -81.7914   26.4118  -75.1519 N.am      2 UNK        -0.4687 
     65 C         -81.3099   25.7255  -74.1011 C.2       1 UNK         0.5165 
     66 O         -80.8699   24.5772  -74.1792 O.2       1 UNK        -0.5079 
     67 H67       -85.7932   27.1281  -72.9638 H         1 UNK         0.0900 
     68 H68       -85.5475   27.0953  -71.2157 H         1 UNK         0.0900 
     69 H69       -84.8392   28.3902  -72.1823 H         1 UNK         0.0900 
     70 H70       -82.6603   28.1139  -72.5078 H         1 UNK         0.2959 
     71 H71       -80.6709   27.3011  -72.8772 H         1 UNK         0.1079 
     72 H72       -81.3587   25.9973  -70.6048 H         1 UNK         0.0837 
     73 H73       -81.1626   24.5990  -71.5997 H         1 UNK         0.0837 
     74 H74       -79.8581   27.5617  -69.8362 H         1 UNK         0.0685 
     75 H75       -78.4641   26.7623  -69.1519 H         1 UNK         0.0685 
     76 H76       -79.5054   28.8838  -72.0560 H         1 UNK         0.1434 
     77 H77       -75.7303   30.8689  -72.3768 H         1 UNK         0.1329 
     78 H78       -76.3042   27.8163  -69.4151 H         1 UNK         0.1335 
     79 H79       -74.3968   29.4104  -69.2430 H         1 UNK         0.0680 
     80 H80       -74.2377   30.7079  -70.4031 H         1 UNK         0.0680 
     81 H81       -70.9071   29.1288  -71.0708 H         1 UNK         0.1032 
     82 H82       -71.8401   30.3698  -70.2818 H         1 UNK         0.1032 
     83 H83       -72.5856   31.2351  -72.5119 H         1 UNK         0.0461 
     84 H84       -68.7557   32.2981  -73.1021 H         1 UNK         0.3453 
     85 H85       -69.4864   30.9436  -73.9301 H         1 UNK         0.3453 
     86 H86       -71.2602   28.8675  -73.5688 H         1 UNK         0.2984 
     87 H87       -72.7544   29.3771  -76.7123 H         1 UNK         0.0554 
     88 H88       -69.7592   29.0148  -76.1809 H         1 UNK         0.0847 
     89 H89       -70.4920   30.2248  -77.2199 H         1 UNK         0.0847 
     90 H90       -70.6137   28.5245  -77.6429 H         1 UNK         0.0847 
     91 H91       -73.1505   27.4198  -75.8655 H         1 UNK         0.3141 
     92 H92       -71.2204   24.8821  -74.3424 H         1 UNK         0.0743 
     93 H93       -72.1727   25.9456  -72.3254 H         1 UNK         0.0784 
     94 H94       -73.6749   26.2860  -73.1732 H         1 UNK         0.0784 
     95 H95       -73.1974   24.6195  -72.8507 H         1 UNK         0.0784 
     96 H96       -73.9367   24.9896  -75.3038 H         1 UNK         0.3213 
     97 H97       -73.0148   23.6521  -78.5493 H         1 UNK         0.0855 
     98 H98       -74.5330   22.6022  -76.1034 H         1 UNK         0.0814 
     99 H99       -73.1620   21.8132  -76.8704 H         1 UNK         0.0814 
    100 H100      -74.6708   21.9930  -77.7513 H         1 UNK         0.0814 
    101 H101      -75.5620   24.4001  -77.5078 H         1 UNK         0.3105 
    102 H102      -75.6224   27.6819  -78.9580 H         1 UNK         0.0547 
    103 H103      -77.7169   26.7123  -79.8934 H         1 UNK         0.0837 
    104 H104      -77.1291   25.0829  -79.5668 H         1 UNK         0.0837 
    105 H105      -76.3080   26.0964  -80.7426 H         1 UNK         0.0837 
    106 H106      -77.5914   26.3951  -77.4122 H         1 UNK         0.3020 
    107 H107      -76.4615   27.4470  -74.1735 H         1 UNK         0.1245 
    108 H108      -78.8957   28.1627  -74.3065 H         1 UNK         0.0781 
    109 H109      -78.7919   28.1703  -76.0357 H         1 UNK         0.0781 
    110 H110      -79.2823   30.7114  -73.5804 H         1 UNK         0.0836 
    111 H111      -77.8857   31.7533  -73.4883 H         1 UNK         0.0836 
    112 H112      -78.5633   25.7069  -75.1273 H         1 UNK         0.3022 
    113 H113      -76.6821   22.7012  -74.9815 H         1 UNK         0.0747 
    114 H114      -78.2756   21.8710  -73.3563 H         1 UNK         0.0793 
    115 H115      -77.2320   23.0338  -72.5528 H         1 UNK         0.0793 
    116 H116      -78.8670   23.4881  -73.0051 H         1 UNK         0.0793 
    117 H117      -79.4859   23.3892  -75.3637 H         1 UNK         0.3047 
    118 H118      -79.1760   23.8288  -78.8836 H         1 UNK         0.0822 
    119 H119      -80.7071   21.8888  -79.0784 H         1 UNK         0.0807 
    120 H120      -80.2748   21.3458  -77.4560 H         1 UNK         0.0807 
    121 H121      -79.0767   21.3326  -78.7427 H         1 UNK         0.0807 
    122 H122      -81.4962   23.5289  -77.3027 H         1 UNK         0.2946 
    123 H123      -82.1884   26.8099  -77.1415 H         1 UNK         0.1144 
    124 H124      -83.0275   24.0850  -75.9941 H         1 UNK         0.0793 
    125 H125      -83.3531   24.6518  -77.6346 H         1 UNK         0.0793 
    126 H126      -84.0744   25.4683  -76.2644 H         1 UNK         0.0793 
    127 H127      -82.1144   27.3542  -74.9835 H         1 UNK         0.2896 
@<TRIPOS>BOND
     1    1    2 1    
     2    1   67 1    
     3    1   68 1    
     4    1   69 1    
     5    2    3 2    
     6    2    4 am   BACKBONE|DICT|INTERRES
     7    4    5 1    
     8    4   70 1    
     9    5    6 1    
    10    5   65 1    
    11    5   71 1    
    12    6    7 1    
    13    6   72 1    
    14    6   73 1    
    15    7    8 1    
    16    8    9 1    
    17    8   74 1    
    18    8   75 1    
    19    9   10 ar   
    20    9   14 ar   
    21   10   11 ar   
    22   10   76 1    
    23   11   12 ar   
    24   11   48 1    
    25   12   13 ar   
    26   12   77 1    
    27   13   14 ar   
    28   13   15 1    
    29   14   78 1    
    30   15   16 1    
    31   15   79 1    
    32   15   80 1    
    33   16   17 1    
    34   17   18 1    
    35   17   81 1    
    36   17   82 1    
    37   18   19 1    
    38   18   22 1    
    39   18   83 1    
    40   19   20 am   BACKBONE|DICT|INTERRES
    41   19   21 2    
    42   20   84 1    
    43   20   85 1    
    44   22   23 am   BACKBONE|DICT|INTERRES
    45   22   86 1    
    46   23   24 2    
    47   23   25 1    
    48   25   26 1    
    49   25   27 1    
    50   25   87 1    
    51   26   88 1    
    52   26   89 1    
    53   26   90 1    
    54   27   28 am   BACKBONE|DICT|INTERRES
    55   27   91 1    
    56   28   29 2    
    57   28   30 1    
    58   30   31 1    
    59   30   32 1    
    60   30   92 1    
    61   31   93 1    
    62   31   94 1    
    63   31   95 1    
    64   32   33 am   BACKBONE|DICT|INTERRES
    65   32   96 1    
    66   33   34 2    
    67   33   35 1    
    68   35   36 1    
    69   35   37 1    
    70   35   97 1    
    71   36   98 1    
    72   36   99 1    
    73   36  100 1    
    74   37   38 am   BACKBONE|DICT|INTERRES
    75   37  101 1    
    76   38   39 2    
    77   38   40 1    
    78   40   41 1    
    79   40   42 1    
    80   40  102 1    
    81   41  103 1    
    82   41  104 1    
    83   41  105 1    
    84   42   43 am   BACKBONE|DICT|INTERRES
    85   42  106 1    
    86   43   44 2    
    87   43   45 1    
    88   45   46 1    
    89   45   49 1    
    90   45  107 1    
    91   46   47 1    
    92   46  108 1    
    93   46  109 1    
    94   47   48 1    
    95   48  110 1    
    96   48  111 1    
    97   49   50 am   BACKBONE|DICT|INTERRES
    98   49  112 1    
    99   50   51 2    
   100   50   52 1    
   101   52   53 1    
   102   52   54 1    
   103   52  113 1    
   104   53  114 1    
   105   53  115 1    
   106   53  116 1    
   107   54   55 am   BACKBONE|DICT|INTERRES
   108   54  117 1    
   109   55   56 2    
   110   55   57 1    
   111   57   58 1    
   112   57   59 1    
   113   57  118 1    
   114   58  119 1    
   115   58  120 1    
   116   58  121 1    
   117   59   60 am   BACKBONE|DICT|INTERRES
   118   59  122 1    
   119   60   61 2    
   120   60   62 1    
   121   62   63 1    
   122   62   64 1    
   123   62  123 1    
   124   63  124 1    
   125   63  125 1    
   126   63  126 1    
   127   64   65 am   BACKBONE|DICT|INTERRES
   128   64  127 1    
   129   65   66 2    
@<TRIPOS>SUBSTRUCTURE
     1 UNK         1 GROUP             0       ****    0 ROOT    
