@<TRIPOS>MOLECULE
3R135
127   129    1
SMALL
USER_CHARGES


@<TRIPOS>ATOM
      1 CA        -81.3916   28.4306  -76.6223 C.3       0 UNK        -0.1998 
      2 C         -80.9460   27.5897  -75.4368 C.2       0 UNK         0.4909 
      3 O         -79.9523   26.8662  -75.5311 O.2       0 UNK        -0.5240 
      4 N         -81.6698   27.6846  -74.3135 N.am      1 UNK        -0.4739 
      5 CA        -81.4514   26.8557  -73.1232 C.3       1 UNK         0.0864 
      6 C6        -82.2359   27.3901  -71.9007 C.3       11 UNK        -0.0881 
      7 S7        -81.4111   26.9627  -70.3297 S.3       11 UNK        -0.2682 
      8 C8        -80.8146   28.5854  -69.7548 C.3       11 UNK         0.0289 
      9 C9        -79.5879   29.0631  -70.5214 C.ar      11 UNK        -0.0687 
     10 C10       -79.7220   29.9448  -71.5999 C.ar      11 UNK        -0.0823 
     11 C11       -78.5942   30.4229  -72.2766 C.ar      11 UNK        -0.0830 
     12 C12       -77.3243   30.0261  -71.8466 C.ar      11 UNK        -0.1021 
     13 C13       -77.1767   29.1273  -70.7883 C.ar      11 UNK        -0.0753 
     14 C14       -78.3114   28.6480  -70.1277 C.ar      11 UNK        -0.0933 
     15 C15       -75.7849   28.6744  -70.3813 C.3       11 UNK         0.0166 
     16 S16       -75.1143   27.5280  -71.6192 S.3       11 UNK        -0.2615 
     17 C17       -73.3767   27.3910  -71.0879 C.3       11 UNK        -0.0865 
     18 CA        -72.4441   28.4398  -71.7525 C.3       10 UNK         0.0862 
     19 C         -70.9794   28.2476  -71.2555 C.2       10 UNK         0.5551 
     20 N         -70.0272   27.8615  -72.0982 N.am      10 UNK        -0.7319 
     21 O         -70.7048   28.4539  -70.0760 O.2       10 UNK        -0.5018 
     22 N         -72.5988   28.4678  -73.2156 N.am      10 UNK        -0.4509 
     23 C         -72.1190   29.4199  -74.0275 C.2       10 UNK         0.4899 
     24 O         -71.5905   30.4579  -73.6265 O.2       10 UNK        -0.4839 
     25 CA        -72.2382   29.1520  -75.5423 C.3       9 UNK         0.0222 
     26 CB        -71.1815   29.9117  -76.3715 C.3       9 UNK        -0.1966 
     27 N         -72.2343   27.7198  -75.8724 N.am      9 UNK        -0.4218 
     28 C         -71.2687   26.8272  -75.6011 C.2       9 UNK         0.5020 
     29 O         -70.1884   27.1235  -75.0881 O.2       9 UNK        -0.5274 
     30 CA        -71.5683   25.3471  -75.8841 C.3       8 UNK         0.0270 
     31 CB        -71.8398   24.6059  -74.5620 C.3       8 UNK        -0.1976 
     32 N         -72.7191   25.1546  -76.7747 N.am      8 UNK        -0.4313 
     33 C         -72.6548   24.5803  -77.9827 C.2       8 UNK         0.5041 
     34 O         -71.6062   24.2050  -78.5096 O.2       8 UNK        -0.5577 
     35 CA        -73.9793   24.3530  -78.7297 C.3       7 UNK         0.0284 
     36 CB        -74.6468   23.0485  -78.2636 C.3       7 UNK        -0.1958 
     37 N         -74.9349   25.4569  -78.6178 N.am      7 UNK        -0.4454 
     38 C         -74.8103   26.6288  -79.2574 C.2       7 UNK         0.5089 
     39 O         -73.8166   26.9546  -79.9068 O.2       7 UNK        -0.5125 
     40 CA        -76.0073   27.5887  -79.1835 C.3       6 UNK         0.0408 
     41 CB        -77.1367   27.1186  -80.1150 C.3       6 UNK        -0.1791 
     42 N         -76.5168   27.6906  -77.8183 N.am      6 UNK        -0.4762 
     43 C         -76.1509   28.6356  -76.9404 C.2       6 UNK         0.5007 
     44 O         -75.4069   29.5749  -77.2209 O.2       6 UNK        -0.5032 
     45 CA        -76.6839   28.4910  -75.4975 C.3       5 UNK         0.0783 
     46 C46       -77.9595   29.3439  -75.2844 C.3       11 UNK        -0.0857 
     47 S47       -77.5957   31.0748  -74.8389 S.3       11 UNK        -0.2512 
     48 C48       -78.7649   31.3711  -73.4627 C.3       11 UNK         0.0225 
     49 N         -76.8945   27.0846  -75.1260 N.am      5 UNK        -0.4615 
     50 C         -75.8993   26.1931  -75.0076 C.2       4 UNK         0.5053 
     51 O         -74.7152   26.4739  -75.1903 O.2       4 UNK        -0.5105 
     52 CA        -76.2550   24.7331  -74.6888 C.3       4 UNK         0.0263 
     53 CB        -76.1598   24.4714  -73.1791 C.3       4 UNK        -0.1981 
     54 N         -77.5633   24.2896  -75.1661 N.am      4 UNK        -0.4224 
     55 C         -78.0235   24.3225  -76.4228 C.2       3 UNK         0.4895 
     56 O         -77.3980   24.8227  -77.3596 O.2       3 UNK        -0.5091 
     57 CA        -79.4173   23.7153  -76.6892 C.3       3 UNK         0.0250 
     58 CB        -79.2988   22.3931  -77.4713 C.3       3 UNK        -0.1996 
     59 N         -80.2733   23.5634  -75.4977 N.am      3 UNK        -0.4254 
     60 C         -80.1099   22.7737  -74.4235 C.2       2 UNK         0.5004 
     61 O         -79.1908   21.9628  -74.3086 O.2       2 UNK        -0.5226 
     62 CA        -81.0638   23.0239  -73.2374 C.3       2 UNK         0.0269 
     63 CB        -80.7102   22.1789  -71.9989 C.3       2 UNK        -0.1926 
     64 N         -81.0357   24.4430  -72.8659 N.am      2 UNK        -0.4687 
     65 C         -81.7981   25.3835  -73.4347 C.2       1 UNK         0.5165 
     66 O         -82.7130   25.1214  -74.2208 O.2       1 UNK        -0.5079 
     67 H67       -82.4784   28.4885  -76.6765 H         1 UNK         0.0900 
     68 H68       -80.9964   29.4424  -76.5414 H         1 UNK         0.0900 
     69 H69       -81.0315   27.9954  -77.5542 H         1 UNK         0.0900 
     70 H70       -82.4918   28.2709  -74.3013 H         1 UNK         0.2959 
     71 H71       -80.3819   26.9156  -72.9044 H         1 UNK         0.1079 
     72 H72       -83.2604   27.0124  -71.8830 H         1 UNK         0.0837 
     73 H73       -82.3322   28.4748  -71.9561 H         1 UNK         0.0837 
     74 H74       -80.5682   28.5061  -68.6948 H         1 UNK         0.0685 
     75 H75       -81.6196   29.3193  -69.8182 H         1 UNK         0.0685 
     76 H76       -80.7074   30.2647  -71.9093 H         1 UNK         0.1434 
     77 H77       -76.4419   30.3930  -72.3527 H         1 UNK         0.1329 
     78 H78       -78.2030   27.9569  -69.3029 H         1 UNK         0.1335 
     79 H79       -75.8003   28.1886  -69.4045 H         1 UNK         0.0680 
     80 H80       -75.1310   29.5433  -70.2926 H         1 UNK         0.0680 
     81 H81       -73.0382   26.3815  -71.3293 H         1 UNK         0.1032 
     82 H82       -73.3319   27.4689  -69.9997 H         1 UNK         0.1032 
     83 H83       -72.7543   29.4220  -71.3910 H         1 UNK         0.0461 
     84 H84       -70.2274   27.6961  -73.0776 H         1 UNK         0.3453 
     85 H85       -69.0871   27.7454  -71.7553 H         1 UNK         0.3453 
     86 H86       -73.0578   27.6681  -73.6283 H         1 UNK         0.2984 
     87 H87       -73.2173   29.5300  -75.8322 H         1 UNK         0.0554 
     88 H88       -71.2763   30.9893  -76.2336 H         1 UNK         0.0847 
     89 H89       -71.2963   29.7123  -77.4368 H         1 UNK         0.0847 
     90 H90       -70.1661   29.6362  -76.0851 H         1 UNK         0.0847 
     91 H91       -73.1228   27.3533  -76.1902 H         1 UNK         0.3141 
     92 H92       -70.6638   24.9251  -76.3266 H         1 UNK         0.0743 
     93 H93       -70.9958   24.7029  -73.8775 H         1 UNK         0.0784 
     94 H94       -72.7202   24.9954  -74.0497 H         1 UNK         0.0784 
     95 H95       -71.9962   23.5405  -74.7317 H         1 UNK         0.0784 
     96 H96       -73.6195   25.4507  -76.4105 H         1 UNK         0.3213 
     97 H97       -73.7349   24.2360  -79.7881 H         1 UNK         0.0855 
     98 H98       -74.9351   23.0906  -77.2139 H         1 UNK         0.0814 
     99 H99       -73.9706   22.2006  -78.3816 H         1 UNK         0.0814 
    100 H100      -75.5425   22.8313  -78.8461 H         1 UNK         0.0814 
    101 H101      -75.8092   25.2573  -78.1344 H         1 UNK         0.3105 
    102 H102      -75.6762   28.5689  -79.5335 H         1 UNK         0.0547 
    103 H103      -77.9675   27.8242  -80.1149 H         1 UNK         0.0837 
    104 H104      -76.7837   27.0346  -81.1436 H         1 UNK         0.0837 
    105 H105      -77.5280   26.1429  -79.8240 H         1 UNK         0.0837 
    106 H106      -77.0966   26.9250  -77.4926 H         1 UNK         0.3020 
    107 H107      -75.9033   28.8662  -74.8307 H         1 UNK         0.1245 
    108 H108      -78.5522   28.9115  -74.4788 H         1 UNK         0.0781 
    109 H109      -78.6019   29.3326  -76.1658 H         1 UNK         0.0781 
    110 H110      -79.7795   31.3046  -73.8588 H         1 UNK         0.0836 
    111 H111      -78.6376   32.3953  -73.1102 H         1 UNK         0.0836 
    112 H112      -77.8566   26.7794  -75.0281 H         1 UNK         0.3022 
    113 H113      -75.5091   24.1085  -75.1816 H         1 UNK         0.0747 
    114 H114      -76.3339   23.4211  -72.9441 H         1 UNK         0.0793 
    115 H115      -75.1676   24.7239  -72.8024 H         1 UNK         0.0793 
    116 H116      -76.8835   25.0666  -72.6204 H         1 UNK         0.0793 
    117 H117      -78.1331   23.7868  -74.4988 H         1 UNK         0.3047 
    118 H118      -79.9336   24.4328  -77.3289 H         1 UNK         0.0822 
    119 H119      -78.7606   22.5434  -78.4082 H         1 UNK         0.0807 
    120 H120      -80.2802   21.9911  -77.7225 H         1 UNK         0.0807 
    121 H121      -78.7572   21.6324  -76.9084 H         1 UNK         0.0807 
    122 H122      -81.0384   24.2260  -75.4497 H         1 UNK         0.2946 
    123 H123      -82.0676   22.7380  -73.5612 H         1 UNK         0.1144 
    124 H124      -81.4134   22.3567  -71.1850 H         1 UNK         0.0793 
    125 H125      -79.7077   22.3993  -71.6296 H         1 UNK         0.0793 
    126 H126      -80.7467   21.1133  -72.2294 H         1 UNK         0.0793 
    127 H127      -80.3097   24.7268  -72.2227 H         1 UNK         0.2896 
@<TRIPOS>BOND
     1    1    2 1    
     2    1   67 1    
     3    1   68 1    
     4    1   69 1    
     5    2    3 2    
     6    2    4 am   BACKBONE|DICT|INTERRES
     7    4    5 1    
     8    4   70 1    
     9    5    6 1    
    10    5   65 1    
    11    5   71 1    
    12    6    7 1    
    13    6   72 1    
    14    6   73 1    
    15    7    8 1    
    16    8    9 1    
    17    8   74 1    
    18    8   75 1    
    19    9   10 ar   
    20    9   14 ar   
    21   10   11 ar   
    22   10   76 1    
    23   11   12 ar   
    24   11   48 1    
    25   12   13 ar   
    26   12   77 1    
    27   13   14 ar   
    28   13   15 1    
    29   14   78 1    
    30   15   16 1    
    31   15   79 1    
    32   15   80 1    
    33   16   17 1    
    34   17   18 1    
    35   17   81 1    
    36   17   82 1    
    37   18   19 1    
    38   18   22 1    
    39   18   83 1    
    40   19   20 am   BACKBONE|DICT|INTERRES
    41   19   21 2    
    42   20   84 1    
    43   20   85 1    
    44   22   23 am   BACKBONE|DICT|INTERRES
    45   22   86 1    
    46   23   24 2    
    47   23   25 1    
    48   25   26 1    
    49   25   27 1    
    50   25   87 1    
    51   26   88 1    
    52   26   89 1    
    53   26   90 1    
    54   27   28 am   BACKBONE|DICT|INTERRES
    55   27   91 1    
    56   28   29 2    
    57   28   30 1    
    58   30   31 1    
    59   30   32 1    
    60   30   92 1    
    61   31   93 1    
    62   31   94 1    
    63   31   95 1    
    64   32   33 am   BACKBONE|DICT|INTERRES
    65   32   96 1    
    66   33   34 2    
    67   33   35 1    
    68   35   36 1    
    69   35   37 1    
    70   35   97 1    
    71   36   98 1    
    72   36   99 1    
    73   36  100 1    
    74   37   38 am   BACKBONE|DICT|INTERRES
    75   37  101 1    
    76   38   39 2    
    77   38   40 1    
    78   40   41 1    
    79   40   42 1    
    80   40  102 1    
    81   41  103 1    
    82   41  104 1    
    83   41  105 1    
    84   42   43 am   BACKBONE|DICT|INTERRES
    85   42  106 1    
    86   43   44 2    
    87   43   45 1    
    88   45   46 1    
    89   45   49 1    
    90   45  107 1    
    91   46   47 1    
    92   46  108 1    
    93   46  109 1    
    94   47   48 1    
    95   48  110 1    
    96   48  111 1    
    97   49   50 am   BACKBONE|DICT|INTERRES
    98   49  112 1    
    99   50   51 2    
   100   50   52 1    
   101   52   53 1    
   102   52   54 1    
   103   52  113 1    
   104   53  114 1    
   105   53  115 1    
   106   53  116 1    
   107   54   55 am   BACKBONE|DICT|INTERRES
   108   54  117 1    
   109   55   56 2    
   110   55   57 1    
   111   57   58 1    
   112   57   59 1    
   113   57  118 1    
   114   58  119 1    
   115   58  120 1    
   116   58  121 1    
   117   59   60 am   BACKBONE|DICT|INTERRES
   118   59  122 1    
   119   60   61 2    
   120   60   62 1    
   121   62   63 1    
   122   62   64 1    
   123   62  123 1    
   124   63  124 1    
   125   63  125 1    
   126   63  126 1    
   127   64   65 am   BACKBONE|DICT|INTERRES
   128   64  127 1    
   129   65   66 2    
@<TRIPOS>SUBSTRUCTURE
     1 UNK         1 GROUP             0       ****    0 ROOT    
