@<TRIPOS>MOLECULE
3R135
127   129    1
SMALL
USER_CHARGES


@<TRIPOS>ATOM
      1 CA        -79.6657   21.8232  -70.1535 C.3       0 UNK        -0.1998 
      2 C         -79.5906   22.8000  -71.3166 C.2       0 UNK         0.4909 
      3 O         -78.4976   23.0816  -71.8044 O.2       0 UNK        -0.5240 
      4 N         -80.7461   23.3023  -71.7720 N.am      1 UNK        -0.4739 
      5 CA        -80.9577   24.2945  -72.8424 C.3       1 UNK         0.0864 
      6 C6        -80.2598   25.6582  -72.6009 C.3       11 UNK        -0.0881 
      7 S7        -80.7576   26.4337  -71.0282 S.3       11 UNK        -0.2682 
      8 C8        -79.1493   26.6254  -70.1892 C.3       11 UNK         0.0289 
      9 C9        -78.2832   27.7446  -70.7647 C.ar      11 UNK        -0.0687 
     10 C10       -78.8258   29.0041  -71.0462 C.ar      11 UNK        -0.0823 
     11 C11       -78.0167   30.0395  -71.5231 C.ar      11 UNK        -0.0830 
     12 C12       -76.6462   29.8213  -71.6868 C.ar      11 UNK        -0.1021 
     13 C13       -76.0899   28.5675  -71.4199 C.ar      11 UNK        -0.0753 
     14 C14       -76.9148   27.5326  -70.9652 C.ar      11 UNK        -0.0933 
     15 C15       -74.5960   28.3368  -71.5994 C.3       11 UNK         0.0166 
     16 S16       -74.1144   28.3676  -73.3534 S.3       11 UNK        -0.2615 
     17 C17       -73.3251   30.0110  -73.4976 C.3       11 UNK        -0.0865 
     18 CA        -72.6558   30.2501  -74.8790 C.3       10 UNK         0.0862 
     19 C         -72.0166   31.6665  -74.9623 C.2       10 UNK         0.5551 
     20 N         -70.7253   31.7991  -75.2401 N.am      10 UNK        -0.7319 
     21 O         -72.7068   32.6648  -74.7732 O.2       10 UNK        -0.5018 
     22 N         -71.7552   29.1448  -75.2354 N.am      10 UNK        -0.4509 
     23 C         -71.4303   28.7579  -76.4723 C.2       10 UNK         0.4899 
     24 O         -71.7636   29.3636  -77.4902 O.2       10 UNK        -0.4839 
     25 CA        -70.6409   27.4413  -76.6077 C.3       9 UNK         0.0222 
     26 CB        -69.1206   27.6949  -76.6090 C.3       9 UNK        -0.1966 
     27 N         -71.0326   26.4077  -75.6332 N.am      9 UNK        -0.4218 
     28 C         -70.8361   26.3829  -74.3052 C.2       9 UNK         0.5020 
     29 O         -70.2206   27.2527  -73.6869 O.2       9 UNK        -0.5274 
     30 CA        -71.5347   25.2490  -73.5430 C.3       8 UNK         0.0270 
     31 CB        -71.3945   25.3711  -72.0134 C.3       8 UNK        -0.1976 
     32 N         -72.9512   25.2677  -73.8988 N.am      8 UNK        -0.4313 
     33 C         -73.6654   24.2170  -74.3122 C.2       8 UNK         0.5041 
     34 O         -73.2276   23.0672  -74.3727 O.2       8 UNK        -0.5577 
     35 CA        -75.1122   24.4981  -74.7505 C.3       7 UNK         0.0284 
     36 CB        -76.0684   24.3502  -73.5576 C.3       7 UNK        -0.1958 
     37 N         -75.3276   25.8146  -75.3595 N.am      7 UNK        -0.4454 
     38 C         -74.7398   26.2845  -76.4713 C.2       7 UNK         0.5089 
     39 O         -73.8415   25.6902  -77.0693 O.2       7 UNK        -0.5125 
     40 CA        -75.2247   27.6454  -77.0080 C.3       6 UNK         0.0408 
     41 CB        -75.5614   27.5756  -78.5076 C.3       6 UNK        -0.1791 
     42 N         -76.3906   28.1338  -76.2716 N.am      6 UNK        -0.4762 
     43 C         -76.6472   29.4008  -75.9296 C.2       6 UNK         0.5007 
     44 O         -75.9581   30.3571  -76.2864 O.2       6 UNK        -0.5032 
     45 CA        -77.8994   29.6283  -75.0511 C.3       5 UNK         0.0783 
     46 C46       -78.0852   31.1135  -74.6419 C.3       11 UNK        -0.0857 
     47 S47       -79.4753   31.3535  -73.4810 S.3       11 UNK        -0.2512 
     48 C48       -78.6258   31.3906  -71.8682 C.3       11 UNK         0.0225 
     49 N         -79.1066   29.0713  -75.6735 N.am      5 UNK        -0.4615 
     50 C         -79.4242   27.7724  -75.7032 C.2       4 UNK         0.5053 
     51 O         -78.7044   26.8981  -75.2155 O.2       4 UNK        -0.5105 
     52 CA        -80.7530   27.3691  -76.3703 C.3       4 UNK         0.0263 
     53 CB        -81.4243   28.4894  -77.1986 C.3       4 UNK        -0.1981 
     54 N         -80.5918   26.1422  -77.1566 N.am      4 UNK        -0.4224 
     55 C         -79.8229   25.9712  -78.2448 C.2       3 UNK         0.4895 
     56 O         -79.2112   26.8819  -78.8063 O.2       3 UNK        -0.5091 
     57 CA        -79.7357   24.5335  -78.8008 C.3       3 UNK         0.0250 
     58 CB        -78.5380   24.3259  -79.7544 C.3       3 UNK        -0.1996 
     59 N         -79.7591   23.5122  -77.7438 N.am      3 UNK        -0.4254 
     60 C         -78.8543   23.3458  -76.7668 C.2       2 UNK         0.5004 
     61 O         -77.8021   23.9776  -76.6791 O.2       2 UNK        -0.5226 
     62 CA        -79.2070   22.3106  -75.6839 C.3       2 UNK         0.0269 
     63 CB        -78.0219   21.3723  -75.3967 C.3       2 UNK        -0.1926 
     64 N         -79.6234   22.9483  -74.4321 N.am      2 UNK        -0.4687 
     65 C         -80.6723   23.7651  -74.2663 C.2       1 UNK         0.5165 
     66 O         -81.4344   24.0819  -75.1824 O.2       1 UNK        -0.5079 
     67 H67       -79.2440   20.8613  -70.4442 H         1 UNK         0.0900 
     68 H68       -79.0936   22.2050  -69.3083 H         1 UNK         0.0900 
     69 H69       -80.6912   21.6592  -69.8226 H         1 UNK         0.0900 
     70 H70       -81.6005   22.9917  -71.3302 H         1 UNK         0.2959 
     71 H71       -82.0319   24.4878  -72.8257 H         1 UNK         0.1079 
     72 H72       -80.5323   26.3598  -73.3881 H         1 UNK         0.0837 
     73 H73       -79.1738   25.5581  -72.6490 H         1 UNK         0.0837 
     74 H74       -78.6223   25.6701  -70.2173 H         1 UNK         0.0685 
     75 H75       -79.3334   26.8433  -69.1366 H         1 UNK         0.0685 
     76 H76       -79.8827   29.1798  -70.8995 H         1 UNK         0.1434 
     77 H77       -76.0139   30.6238  -72.0381 H         1 UNK         0.1329 
     78 H78       -76.4864   26.5645  -70.7445 H         1 UNK         0.1335 
     79 H79       -74.0387   29.0861  -71.0357 H         1 UNK         0.0680 
     80 H80       -74.3074   27.3701  -71.1837 H         1 UNK         0.0680 
     81 H81       -74.0825   30.7740  -73.3133 H         1 UNK         0.1032 
     82 H82       -72.5848   30.1118  -72.7017 H         1 UNK         0.1032 
     83 H83       -73.4525   30.2556  -75.6224 H         1 UNK         0.0461 
     84 H84       -70.1561   30.9838  -75.4004 H         1 UNK         0.3453 
     85 H85       -70.3206   32.7205  -75.2943 H         1 UNK         0.3453 
     86 H86       -71.3749   28.6070  -74.4632 H         1 UNK         0.2984 
     87 H87       -70.9015   27.0263  -77.5827 H         1 UNK         0.0554 
     88 H88       -68.5640   26.7687  -76.7511 H         1 UNK         0.0847 
     89 H89       -68.7780   28.1535  -75.6812 H         1 UNK         0.0847 
     90 H90       -68.8420   28.3678  -77.4210 H         1 UNK         0.0847 
     91 H91       -71.6244   25.6809  -76.0176 H         1 UNK         0.3141 
     92 H92       -71.0665   24.3155  -73.8621 H         1 UNK         0.0743 
     93 H93       -70.3459   25.3534  -71.7139 H         1 UNK         0.0784 
     94 H94       -71.8268   26.3012  -71.6420 H         1 UNK         0.0784 
     95 H95       -71.8914   24.5449  -71.5047 H         1 UNK         0.0784 
     96 H96       -73.3984   26.1772  -73.8964 H         1 UNK         0.3213 
     97 H97       -75.3752   23.7489  -75.4996 H         1 UNK         0.0855 
     98 H98       -75.8734   25.0950  -72.7855 H         1 UNK         0.0814 
     99 H99       -75.9712   23.3668  -73.0957 H         1 UNK         0.0814 
    100 H100      -77.1076   24.4569  -73.8704 H         1 UNK         0.0814 
    101 H101      -76.0345   26.3865  -74.9225 H         1 UNK         0.3105 
    102 H102      -74.3972   28.3423  -76.8694 H         1 UNK         0.0547 
    103 H103      -74.6978   27.2537  -79.0907 H         1 UNK         0.0837 
    104 H104      -76.3710   26.8709  -78.7019 H         1 UNK         0.0837 
    105 H105      -75.8655   28.5492  -78.8916 H         1 UNK         0.0837 
    106 H106      -77.0824   27.4367  -76.0025 H         1 UNK         0.3020 
    107 H107      -77.7146   29.0639  -74.1348 H         1 UNK         0.1245 
    108 H108      -78.2698   31.7296  -75.5238 H         1 UNK         0.0781 
    109 H109      -77.1743   31.5065  -74.1866 H         1 UNK         0.0781 
    110 H110      -79.3446   31.6723  -71.0972 H         1 UNK         0.0836 
    111 H111      -77.8649   32.1726  -71.8728 H         1 UNK         0.0836 
    112 H112      -79.7315   29.7361  -76.1044 H         1 UNK         0.3022 
    113 H113      -81.4327   27.1134  -75.5567 H         1 UNK         0.0747 
    114 H114      -82.3360   28.1293  -77.6753 H         1 UNK         0.0793 
    115 H115      -81.7108   29.3312  -76.5670 H         1 UNK         0.0793 
    116 H116      -80.7710   28.8704  -77.9844 H         1 UNK         0.0793 
    117 H117      -80.9857   25.3117  -76.7249 H         1 UNK         0.3047 
    118 H118      -80.6453   24.3860  -79.3848 H         1 UNK         0.0822 
    119 H119      -77.5868   24.5339  -79.2633 H         1 UNK         0.0807 
    120 H120      -78.6068   24.9891  -80.6175 H         1 UNK         0.0807 
    121 H121      -78.5041   23.3047  -80.1337 H         1 UNK         0.0807 
    122 H122      -80.6012   22.9538  -77.7058 H         1 UNK         0.2946 
    123 H123      -80.0393   21.6997  -76.0397 H         1 UNK         0.1144 
    124 H124      -77.6822   20.8820  -76.3099 H         1 UNK         0.0793 
    125 H125      -78.2979   20.5890  -74.6906 H         1 UNK         0.0793 
    126 H126      -77.1706   21.9120  -74.9807 H         1 UNK         0.0793 
    127 H127      -79.0331   22.7995  -73.6183 H         1 UNK         0.2896 
@<TRIPOS>BOND
     1    1    2 1    
     2    1   67 1    
     3    1   68 1    
     4    1   69 1    
     5    2    3 2    
     6    2    4 am   BACKBONE|DICT|INTERRES
     7    4    5 1    
     8    4   70 1    
     9    5    6 1    
    10    5   65 1    
    11    5   71 1    
    12    6    7 1    
    13    6   72 1    
    14    6   73 1    
    15    7    8 1    
    16    8    9 1    
    17    8   74 1    
    18    8   75 1    
    19    9   10 ar   
    20    9   14 ar   
    21   10   11 ar   
    22   10   76 1    
    23   11   12 ar   
    24   11   48 1    
    25   12   13 ar   
    26   12   77 1    
    27   13   14 ar   
    28   13   15 1    
    29   14   78 1    
    30   15   16 1    
    31   15   79 1    
    32   15   80 1    
    33   16   17 1    
    34   17   18 1    
    35   17   81 1    
    36   17   82 1    
    37   18   19 1    
    38   18   22 1    
    39   18   83 1    
    40   19   20 am   BACKBONE|DICT|INTERRES
    41   19   21 2    
    42   20   84 1    
    43   20   85 1    
    44   22   23 am   BACKBONE|DICT|INTERRES
    45   22   86 1    
    46   23   24 2    
    47   23   25 1    
    48   25   26 1    
    49   25   27 1    
    50   25   87 1    
    51   26   88 1    
    52   26   89 1    
    53   26   90 1    
    54   27   28 am   BACKBONE|DICT|INTERRES
    55   27   91 1    
    56   28   29 2    
    57   28   30 1    
    58   30   31 1    
    59   30   32 1    
    60   30   92 1    
    61   31   93 1    
    62   31   94 1    
    63   31   95 1    
    64   32   33 am   BACKBONE|DICT|INTERRES
    65   32   96 1    
    66   33   34 2    
    67   33   35 1    
    68   35   36 1    
    69   35   37 1    
    70   35   97 1    
    71   36   98 1    
    72   36   99 1    
    73   36  100 1    
    74   37   38 am   BACKBONE|DICT|INTERRES
    75   37  101 1    
    76   38   39 2    
    77   38   40 1    
    78   40   41 1    
    79   40   42 1    
    80   40  102 1    
    81   41  103 1    
    82   41  104 1    
    83   41  105 1    
    84   42   43 am   BACKBONE|DICT|INTERRES
    85   42  106 1    
    86   43   44 2    
    87   43   45 1    
    88   45   46 1    
    89   45   49 1    
    90   45  107 1    
    91   46   47 1    
    92   46  108 1    
    93   46  109 1    
    94   47   48 1    
    95   48  110 1    
    96   48  111 1    
    97   49   50 am   BACKBONE|DICT|INTERRES
    98   49  112 1    
    99   50   51 2    
   100   50   52 1    
   101   52   53 1    
   102   52   54 1    
   103   52  113 1    
   104   53  114 1    
   105   53  115 1    
   106   53  116 1    
   107   54   55 am   BACKBONE|DICT|INTERRES
   108   54  117 1    
   109   55   56 2    
   110   55   57 1    
   111   57   58 1    
   112   57   59 1    
   113   57  118 1    
   114   58  119 1    
   115   58  120 1    
   116   58  121 1    
   117   59   60 am   BACKBONE|DICT|INTERRES
   118   59  122 1    
   119   60   61 2    
   120   60   62 1    
   121   62   63 1    
   122   62   64 1    
   123   62  123 1    
   124   63  124 1    
   125   63  125 1    
   126   63  126 1    
   127   64   65 am   BACKBONE|DICT|INTERRES
   128   64  127 1    
   129   65   66 2    
@<TRIPOS>SUBSTRUCTURE
     1 UNK         1 GROUP             0       ****    0 ROOT    
