@<TRIPOS>MOLECULE
3R135
127   129    1
SMALL
USER_CHARGES


@<TRIPOS>ATOM
      1 CA        -79.6071   33.5252  -73.4694 C.3       0 UNK        -0.1998 
      2 C         -79.4762   32.0169  -73.6157 C.2       0 UNK         0.4909 
      3 O         -78.5385   31.5459  -74.2563 O.2       0 UNK        -0.5240 
      4 N         -80.4019   31.2563  -73.0180 N.am      1 UNK        -0.4739 
      5 CA        -80.4419   29.7924  -73.0776 C.3       1 UNK         0.0864 
      6 C6        -81.4281   29.2288  -72.0210 C.3       11 UNK        -0.0881 
      7 S7        -81.4091   27.4061  -71.8750 S.3       11 UNK        -0.2682 
      8 C8        -80.2721   27.1393  -70.4820 C.3       11 UNK         0.0289 
      9 C9        -78.8390   27.5301  -70.8161 C.ar      11 UNK        -0.0687 
     10 C10       -78.0683   26.7315  -71.6664 C.ar      11 UNK        -0.0823 
     11 C11       -76.7289   27.0471  -71.9117 C.ar      11 UNK        -0.0830 
     12 C12       -76.1651   28.1773  -71.3124 C.ar      11 UNK        -0.1021 
     13 C13       -76.9298   28.9976  -70.4719 C.ar      11 UNK        -0.0753 
     14 C14       -78.2670   28.6649  -70.2336 C.ar      11 UNK        -0.0933 
     15 C15       -76.3316   30.1909  -69.7270 C.3       11 UNK         0.0166 
     16 S16       -74.8779   30.9605  -70.5156 S.3       11 UNK        -0.2615 
     17 C17       -75.6394   32.0950  -71.7308 C.3       11 UNK        -0.0865 
     18 CA        -75.0536   31.9855  -73.1632 C.3       10 UNK         0.0862 
     19 C         -73.5239   32.2860  -73.2152 C.2       10 UNK         0.5551 
     20 N         -72.6682   31.3320  -73.5670 N.am      10 UNK        -0.7319 
     21 O         -73.1124   33.4109  -72.9412 O.2       10 UNK        -0.5018 
     22 N         -75.4651   30.7398  -73.8242 N.am      10 UNK        -0.4509 
     23 C         -75.4279   30.5502  -75.1482 C.2       10 UNK         0.4899 
     24 O         -75.0853   31.4103  -75.9632 O.2       10 UNK        -0.4839 
     25 CA        -75.8038   29.1480  -75.6514 C.3       9 UNK         0.0222 
     26 CB        -76.8867   29.2319  -76.7409 C.3       9 UNK        -0.1966 
     27 N         -74.6395   28.4452  -76.1942 N.am      9 UNK        -0.4218 
     28 C         -73.5122   28.1507  -75.5301 C.2       9 UNK         0.5020 
     29 O         -73.3092   28.4698  -74.3560 O.2       9 UNK        -0.5274 
     30 CA        -72.4198   27.3871  -76.3123 C.3       8 UNK         0.0270 
     31 CB        -71.5147   26.5482  -75.3843 C.3       8 UNK        -0.1976 
     32 N         -72.9112   26.5564  -77.4252 N.am      8 UNK        -0.4313 
     33 C         -73.7954   25.5495  -77.3557 C.2       8 UNK         0.5041 
     34 O         -74.4208   25.2530  -76.3363 O.2       8 UNK        -0.5577 
     35 CA        -74.0704   24.7471  -78.6414 C.3       7 UNK         0.0284 
     36 CB        -73.0499   24.9631  -79.7837 C.3       7 UNK        -0.1958 
     37 N         -74.2487   23.3312  -78.2999 N.am      7 UNK        -0.4454 
     38 C         -73.3028   22.4658  -77.9058 C.2       7 UNK         0.5089 
     39 O         -72.0886   22.6551  -77.9977 O.2       7 UNK        -0.5125 
     40 CA        -73.8429   21.2004  -77.2214 C.3       6 UNK         0.0408 
     41 CB        -72.7903   20.0839  -77.0499 C.3       6 UNK        -0.1791 
     42 N         -74.4760   21.5755  -75.9516 N.am      6 UNK        -0.4762 
     43 C         -73.8903   22.0543  -74.8384 C.2       6 UNK         0.5007 
     44 O         -72.6722   22.0580  -74.6564 O.2       6 UNK        -0.5032 
     45 CA        -74.8102   22.6521  -73.7447 C.3       5 UNK         0.0783 
     46 C46       -74.1920   23.9418  -73.1400 C.3       11 UNK        -0.0857 
     47 S47       -75.2290   24.7301  -71.8633 S.3       11 UNK        -0.2512 
     48 C48       -75.8794   26.1502  -72.7977 C.3       11 UNK         0.0225 
     49 N         -76.1719   22.8750  -74.2459 N.am      5 UNK        -0.4615 
     50 C         -77.1518   21.9632  -74.2439 C.2       4 UNK         0.5053 
     51 O         -77.0257   20.8330  -73.7732 O.2       4 UNK        -0.5105 
     52 CA        -78.4901   22.3538  -74.8970 C.3       4 UNK         0.0263 
     53 CB        -79.5462   22.6389  -73.8163 C.3       4 UNK        -0.1981 
     54 N         -78.4206   23.5090  -75.7957 N.am      4 UNK        -0.4224 
     55 C         -77.7335   23.6067  -76.9410 C.2       3 UNK         0.4895 
     56 O         -77.0049   22.7086  -77.3693 O.2       3 UNK        -0.5091 
     57 CA        -77.8575   24.9250  -77.7434 C.3       3 UNK         0.0250 
     58 CB        -77.9282   24.6534  -79.2583 C.3       3 UNK        -0.1996 
     59 N         -78.9774   25.8093  -77.3816 N.am      3 UNK        -0.4254 
     60 C         -79.1216   26.4691  -76.2258 C.2       2 UNK         0.5004 
     61 O         -78.3599   26.3280  -75.2664 O.2       2 UNK        -0.5226 
     62 CA        -80.3208   27.4167  -76.1059 C.3       2 UNK         0.0269 
     63 CB        -81.6492   26.6356  -76.0787 C.3       2 UNK        -0.1926 
     64 N         -80.1564   28.1589  -74.8631 N.am      2 UNK        -0.4687 
     65 C         -80.7642   29.2909  -74.5034 C.2       1 UNK         0.5165 
     66 O         -81.5642   29.9029  -75.2165 O.2       1 UNK        -0.5079 
     67 H67       -78.7131   33.9342  -72.9992 H         1 UNK         0.0900 
     68 H68       -79.7188   33.9877  -74.4496 H         1 UNK         0.0900 
     69 H69       -80.4681   33.8035  -72.8619 H         1 UNK         0.0900 
     70 H70       -81.1694   31.6990  -72.5335 H         1 UNK         0.2959 
     71 H71       -79.4377   29.4446  -72.8252 H         1 UNK         0.1079 
     72 H72       -82.4487   29.5368  -72.2562 H         1 UNK         0.0837 
     73 H73       -81.2086   29.6567  -71.0416 H         1 UNK         0.0837 
     74 H74       -80.2976   26.0834  -70.2091 H         1 UNK         0.0685 
     75 H75       -80.6347   27.6855  -69.6097 H         1 UNK         0.0685 
     76 H76       -78.5029   25.8494  -72.1171 H         1 UNK         0.1434 
     77 H77       -75.1191   28.3928  -71.4815 H         1 UNK         0.1329 
     78 H78       -78.8575   29.2752  -69.5637 H         1 UNK         0.1335 
     79 H79       -76.0301   29.8453  -68.7374 H         1 UNK         0.0680 
     80 H80       -77.0910   30.9571  -69.5625 H         1 UNK         0.0680 
     81 H81       -76.7172   31.9274  -71.7669 H         1 UNK         0.1032 
     82 H82       -75.5170   33.1139  -71.3590 H         1 UNK         0.1032 
     83 H83       -75.5183   32.7916  -73.7349 H         1 UNK         0.0461 
     84 H84       -72.9985   30.3969  -73.7811 H         1 UNK         0.3453 
     85 H85       -71.6830   31.5381  -73.5983 H         1 UNK         0.3453 
     86 H86       -75.7202   29.9756  -73.2167 H         1 UNK         0.2984 
     87 H87       -76.1966   28.5552  -74.8224 H         1 UNK         0.0554 
     88 H88       -77.8112   29.6445  -76.3342 H         1 UNK         0.0847 
     89 H89       -77.1153   28.2501  -77.1515 H         1 UNK         0.0847 
     90 H90       -76.5820   29.8710  -77.5707 H         1 UNK         0.0847 
     91 H91       -74.6969   28.1609  -77.1598 H         1 UNK         0.3141 
     92 H92       -71.7947   28.1579  -76.7655 H         1 UNK         0.0743 
     93 H93       -71.0359   27.1719  -74.6283 H         1 UNK         0.0784 
     94 H94       -70.7201   26.0556  -75.9446 H         1 UNK         0.0784 
     95 H95       -72.0798   25.7775  -74.8604 H         1 UNK         0.0784 
     96 H96       -72.4760   26.7319  -78.3206 H         1 UNK         0.3213 
     97 H97       -75.0348   25.0943  -79.0096 H         1 UNK         0.0855 
     98 H98       -72.0224   24.7854  -79.4647 H         1 UNK         0.0814 
     99 H99       -73.1028   25.9806  -80.1724 H         1 UNK         0.0814 
    100 H100      -73.2542   24.2958  -80.6211 H         1 UNK         0.0814 
    101 H101      -75.2086   23.0663  -78.0950 H         1 UNK         0.3105 
    102 H102      -74.6365   20.8039  -77.8570 H         1 UNK         0.0547 
    103 H103      -73.2102   19.2181  -76.5385 H         1 UNK         0.0837 
    104 H104      -71.9180   20.4159  -76.4869 H         1 UNK         0.0837 
    105 H105      -72.4306   19.7450  -78.0218 H         1 UNK         0.0837 
    106 H106      -75.4833   21.6639  -75.9999 H         1 UNK         0.3020 
    107 H107      -74.8507   21.9081  -72.9457 H         1 UNK         0.1245 
    108 H108      -73.9737   24.6690  -73.9210 H         1 UNK         0.0781 
    109 H109      -73.2312   23.7152  -72.6742 H         1 UNK         0.0781 
    110 H110      -76.4657   25.7903  -73.6423 H         1 UNK         0.0836 
    111 H111      -75.0498   26.7174  -73.2213 H         1 UNK         0.0836 
    112 H112      -76.3414   23.7720  -74.6781 H         1 UNK         0.3022 
    113 H113      -78.8216   21.4977  -75.4881 H         1 UNK         0.0747 
    114 H114      -80.5252   22.8288  -74.2568 H         1 UNK         0.0793 
    115 H115      -79.6564   21.7887  -73.1416 H         1 UNK         0.0793 
    116 H116      -79.2770   23.5044  -73.2091 H         1 UNK         0.0793 
    117 H117      -78.8876   24.3506  -75.4818 H         1 UNK         0.3047 
    118 H118      -76.9401   25.4802  -77.5417 H         1 UNK         0.0822 
    119 H119      -77.8867   25.5807  -79.8301 H         1 UNK         0.0807 
    120 H120      -78.8483   24.1335  -79.5277 H         1 UNK         0.0807 
    121 H121      -77.0989   24.0331  -79.5999 H         1 UNK         0.0807 
    122 H122      -79.6725   25.9508  -78.1008 H         1 UNK         0.2946 
    123 H123      -80.3052   28.1130  -76.9473 H         1 UNK         0.1144 
    124 H124      -82.5032   27.3059  -75.9803 H         1 UNK         0.0793 
    125 H125      -81.6832   25.9315  -75.2459 H         1 UNK         0.0793 
    126 H126      -81.7961   26.0658  -76.9968 H         1 UNK         0.0793 
    127 H127      -79.4832   27.7299  -74.2376 H         1 UNK         0.2896 
@<TRIPOS>BOND
     1    1    2 1    
     2    1   67 1    
     3    1   68 1    
     4    1   69 1    
     5    2    3 2    
     6    2    4 am   BACKBONE|DICT|INTERRES
     7    4    5 1    
     8    4   70 1    
     9    5    6 1    
    10    5   65 1    
    11    5   71 1    
    12    6    7 1    
    13    6   72 1    
    14    6   73 1    
    15    7    8 1    
    16    8    9 1    
    17    8   74 1    
    18    8   75 1    
    19    9   10 ar   
    20    9   14 ar   
    21   10   11 ar   
    22   10   76 1    
    23   11   12 ar   
    24   11   48 1    
    25   12   13 ar   
    26   12   77 1    
    27   13   14 ar   
    28   13   15 1    
    29   14   78 1    
    30   15   16 1    
    31   15   79 1    
    32   15   80 1    
    33   16   17 1    
    34   17   18 1    
    35   17   81 1    
    36   17   82 1    
    37   18   19 1    
    38   18   22 1    
    39   18   83 1    
    40   19   20 am   BACKBONE|DICT|INTERRES
    41   19   21 2    
    42   20   84 1    
    43   20   85 1    
    44   22   23 am   BACKBONE|DICT|INTERRES
    45   22   86 1    
    46   23   24 2    
    47   23   25 1    
    48   25   26 1    
    49   25   27 1    
    50   25   87 1    
    51   26   88 1    
    52   26   89 1    
    53   26   90 1    
    54   27   28 am   BACKBONE|DICT|INTERRES
    55   27   91 1    
    56   28   29 2    
    57   28   30 1    
    58   30   31 1    
    59   30   32 1    
    60   30   92 1    
    61   31   93 1    
    62   31   94 1    
    63   31   95 1    
    64   32   33 am   BACKBONE|DICT|INTERRES
    65   32   96 1    
    66   33   34 2    
    67   33   35 1    
    68   35   36 1    
    69   35   37 1    
    70   35   97 1    
    71   36   98 1    
    72   36   99 1    
    73   36  100 1    
    74   37   38 am   BACKBONE|DICT|INTERRES
    75   37  101 1    
    76   38   39 2    
    77   38   40 1    
    78   40   41 1    
    79   40   42 1    
    80   40  102 1    
    81   41  103 1    
    82   41  104 1    
    83   41  105 1    
    84   42   43 am   BACKBONE|DICT|INTERRES
    85   42  106 1    
    86   43   44 2    
    87   43   45 1    
    88   45   46 1    
    89   45   49 1    
    90   45  107 1    
    91   46   47 1    
    92   46  108 1    
    93   46  109 1    
    94   47   48 1    
    95   48  110 1    
    96   48  111 1    
    97   49   50 am   BACKBONE|DICT|INTERRES
    98   49  112 1    
    99   50   51 2    
   100   50   52 1    
   101   52   53 1    
   102   52   54 1    
   103   52  113 1    
   104   53  114 1    
   105   53  115 1    
   106   53  116 1    
   107   54   55 am   BACKBONE|DICT|INTERRES
   108   54  117 1    
   109   55   56 2    
   110   55   57 1    
   111   57   58 1    
   112   57   59 1    
   113   57  118 1    
   114   58  119 1    
   115   58  120 1    
   116   58  121 1    
   117   59   60 am   BACKBONE|DICT|INTERRES
   118   59  122 1    
   119   60   61 2    
   120   60   62 1    
   121   62   63 1    
   122   62   64 1    
   123   62  123 1    
   124   63  124 1    
   125   63  125 1    
   126   63  126 1    
   127   64   65 am   BACKBONE|DICT|INTERRES
   128   64  127 1    
   129   65   66 2    
@<TRIPOS>SUBSTRUCTURE
     1 UNK         1 GROUP             0       ****    0 ROOT    
