@<TRIPOS>MOLECULE
3R135
127   129    1
SMALL
USER_CHARGES


@<TRIPOS>ATOM
      1 CA        -80.9481   22.0997  -71.8870 C.3       0 UNK        -0.1998 
      2 C         -81.5497   23.4591  -72.2082 C.2       0 UNK         0.4909 
      3 O         -82.3243   23.5756  -73.1591 O.2       0 UNK        -0.5240 
      4 N         -81.1957   24.4893  -71.4262 N.am      1 UNK        -0.4739 
      5 CA        -81.6050   25.8843  -71.6263 C.3       1 UNK         0.0864 
      6 C6        -81.1118   26.7796  -70.4614 C.3       11 UNK        -0.0881 
      7 S7        -81.7582   28.4879  -70.5464 S.3       11 UNK        -0.2682 
      8 C8        -80.2760   29.4939  -70.1902 C.3       11 UNK         0.0289 
      9 C9        -79.1267   29.2567  -71.1650 C.ar      11 UNK        -0.0687 
     10 C10       -79.2979   29.4703  -72.5369 C.ar      11 UNK        -0.0823 
     11 C11       -78.2497   29.2368  -73.4343 C.ar      11 UNK        -0.0830 
     12 C12       -77.0114   28.8101  -72.9386 C.ar      11 UNK        -0.1021 
     13 C13       -76.8178   28.6211  -71.5684 C.ar      11 UNK        -0.0753 
     14 C14       -77.8820   28.8336  -70.6879 C.ar      11 UNK        -0.0933 
     15 C15       -75.4566   28.1920  -71.0437 C.3       11 UNK         0.0166 
     16 S16       -74.6234   29.5820  -70.2149 S.3       11 UNK        -0.2615 
     17 C17       -72.8646   29.1314  -70.3960 C.3       11 UNK        -0.0865 
     18 CA        -72.1596   30.0059  -71.4644 C.3       10 UNK         0.0862 
     19 C         -70.6249   29.7736  -71.4482 C.2       10 UNK         0.5551 
     20 N         -69.8972   30.5121  -70.6220 N.am      10 UNK        -0.7319 
     21 O         -70.0956   28.9076  -72.1423 O.2       10 UNK        -0.5018 
     22 N         -72.7334   29.7828  -72.7969 N.am      10 UNK        -0.4509 
     23 C         -72.5981   30.5975  -73.8463 C.2       10 UNK         0.4899 
     24 O         -72.0331   31.6917  -73.8034 O.2       10 UNK        -0.4839 
     25 CA        -73.1743   30.0696  -75.1730 C.3       9 UNK         0.0222 
     26 CB        -73.2642   31.1535  -76.2622 C.3       9 UNK        -0.1966 
     27 N         -72.3810   28.9453  -75.6760 N.am      9 UNK        -0.4218 
     28 C         -72.4459   27.6946  -75.2045 C.2       9 UNK         0.5020 
     29 O         -73.2214   27.3423  -74.3129 O.2       9 UNK        -0.5274 
     30 CA        -71.4643   26.6807  -75.7964 C.3       8 UNK         0.0270 
     31 CB        -70.3889   26.3014  -74.7596 C.3       8 UNK        -0.1976 
     32 N         -72.2074   25.5009  -76.2313 N.am      8 UNK        -0.4313 
     33 C         -71.7424   24.5647  -77.0689 C.2       8 UNK         0.5041 
     34 O         -70.6104   24.5791  -77.5551 O.2       8 UNK        -0.5577 
     35 CA        -72.7069   23.4352  -77.4561 C.3       7 UNK         0.0284 
     36 CB        -73.0154   22.5212  -76.2571 C.3       7 UNK        -0.1958 
     37 N         -73.9461   23.9928  -77.9950 N.am      7 UNK        -0.4454 
     38 C         -74.1645   24.2482  -79.2932 C.2       7 UNK         0.5089 
     39 O         -73.3782   23.9474  -80.1921 O.2       7 UNK        -0.5125 
     40 CA        -75.4786   24.9634  -79.6641 C.3       6 UNK         0.0408 
     41 CB        -76.5366   23.9443  -80.1146 C.3       6 UNK        -0.1791 
     42 N         -76.0168   25.7763  -78.5704 N.am      6 UNK        -0.4762 
     43 C         -75.4679   26.9260  -78.1458 C.2       6 UNK         0.5007 
     44 O         -74.5105   27.4642  -78.7023 O.2       6 UNK        -0.5032 
     45 CA        -76.0473   27.5744  -76.8693 C.3       5 UNK         0.0783 
     46 C46       -76.9450   28.7874  -77.2262 C.3       11 UNK        -0.0857 
     47 S47       -77.0524   29.9952  -75.8644 S.3       11 UNK        -0.2512 
     48 C48       -78.4987   29.3918  -74.9321 C.3       11 UNK         0.0225 
     49 N         -76.7322   26.6146  -75.9902 N.am      5 UNK        -0.4615 
     50 C         -76.1566   25.5503  -75.4108 C.2       4 UNK         0.5053 
     51 O         -74.9755   25.2463  -75.5679 O.2       4 UNK        -0.5105 
     52 CA        -77.0545   24.6210  -74.5807 C.3       4 UNK         0.0263 
     53 CB        -77.0005   25.0007  -73.0933 C.3       4 UNK        -0.1981 
     54 N         -78.4444   24.5910  -75.0488 N.am      4 UNK        -0.4224 
     55 C         -78.8262   24.0518  -76.2189 C.2       3 UNK         0.4895 
     56 O         -78.0342   23.5569  -77.0207 O.2       3 UNK        -0.5091 
     57 CA        -80.3243   24.0583  -76.5773 C.3       3 UNK         0.0250 
     58 CB        -80.9462   22.6811  -76.2967 C.3       3 UNK        -0.1996 
     59 N         -81.0961   25.0880  -75.8806 N.am      3 UNK        -0.4254 
     60 C         -80.9926   26.4034  -76.1198 C.2       2 UNK         0.5004 
     61 O         -80.2720   26.8822  -76.9957 O.2       2 UNK        -0.5226 
     62 CA        -81.7908   27.3527  -75.2041 C.3       2 UNK         0.0269 
     63 CB        -83.1276   27.7292  -75.8619 C.3       2 UNK        -0.1926 
     64 N         -82.0463   26.8419  -73.8508 N.am      2 UNK        -0.4687 
     65 C         -81.1146   26.3891  -72.9985 C.2       1 UNK         0.5165 
     66 O         -79.9172   26.3143  -73.2732 O.2       1 UNK        -0.5079 
     67 H67       -80.3354   21.7556  -72.7197 H         1 UNK         0.0900 
     68 H68       -80.3223   22.1308  -70.9954 H         1 UNK         0.0900 
     69 H69       -81.7393   21.3693  -71.7207 H         1 UNK         0.0900 
     70 H70       -80.5387   24.3320  -70.6758 H         1 UNK         0.2959 
     71 H71       -82.6972   25.8975  -71.6224 H         1 UNK         0.1079 
     72 H72       -81.4359   26.3575  -69.5089 H         1 UNK         0.0837 
     73 H73       -80.0211   26.7876  -70.4269 H         1 UNK         0.0837 
     74 H74       -80.5526   30.5484  -70.2245 H         1 UNK         0.0685 
     75 H75       -79.9611   29.2943  -69.1648 H         1 UNK         0.0685 
     76 H76       -80.2631   29.7890  -72.9058 H         1 UNK         0.1434 
     77 H77       -76.1936   28.6147  -73.6183 H         1 UNK         0.1329 
     78 H78       -77.7323   28.6797  -69.6280 H         1 UNK         0.1335 
     79 H79       -75.5703   27.3641  -70.3425 H         1 UNK         0.0680 
     80 H80       -74.8383   27.8221  -71.8634 H         1 UNK         0.0680 
     81 H81       -72.3932   29.2688  -69.4208 H         1 UNK         0.1032 
     82 H82       -72.7646   28.0696  -70.6301 H         1 UNK         0.1032 
     83 H83       -72.3343   31.0531  -71.2075 H         1 UNK         0.0461 
     84 H84       -70.3218   31.2194  -70.0422 H         1 UNK         0.3453 
     85 H85       -68.9003   30.3667  -70.5846 H         1 UNK         0.3453 
     86 H86       -73.1238   28.8634  -72.9722 H         1 UNK         0.2984 
     87 H87       -74.1896   29.7250  -74.9688 H         1 UNK         0.0554 
     88 H88       -73.8631   31.9984  -75.9197 H         1 UNK         0.0847 
     89 H89       -73.7401   30.7681  -77.1644 H         1 UNK         0.0847 
     90 H90       -72.2816   31.5390  -76.5369 H         1 UNK         0.0847 
     91 H91       -71.6907   29.1641  -76.3804 H         1 UNK         0.3141 
     92 H92       -70.9781   27.1246  -76.6678 H         1 UNK         0.0743 
     93 H93       -70.8275   25.8139  -73.8880 H         1 UNK         0.0784 
     94 H94       -69.6424   25.6279  -75.1802 H         1 UNK         0.0784 
     95 H95       -69.8600   27.1871  -74.4048 H         1 UNK         0.0784 
     96 H96       -73.1638   25.4349  -75.8785 H         1 UNK         0.3213 
     97 H97       -72.2191   22.8230  -78.2181 H         1 UNK         0.0855 
     98 H98       -73.5009   23.0563  -75.4408 H         1 UNK         0.0814 
     99 H99       -72.0990   22.0845  -75.8580 H         1 UNK         0.0814 
    100 H100      -73.6665   21.6968  -76.5478 H         1 UNK         0.0814 
    101 H101      -74.6167   24.3307  -77.3133 H         1 UNK         0.3105 
    102 H102      -75.2687   25.6251  -80.5072 H         1 UNK         0.0547 
    103 H103      -76.1892   23.3828  -80.9829 H         1 UNK         0.0837 
    104 H104      -76.7606   23.2201  -79.3309 H         1 UNK         0.0837 
    105 H105      -77.4686   24.4337  -80.3976 H         1 UNK         0.0837 
    106 H106      -76.7919   25.3840  -78.0511 H         1 UNK         0.3020 
    107 H107      -75.1814   27.9419  -76.3166 H         1 UNK         0.1245 
    108 H108      -77.9420   28.4681  -77.5358 H         1 UNK         0.0781 
    109 H109      -76.5351   29.3375  -78.0761 H         1 UNK         0.0781 
    110 H110      -78.8110   28.4222  -75.3147 H         1 UNK         0.0836 
    111 H111      -79.3274   30.0780  -75.1128 H         1 UNK         0.0836 
    112 H112      -77.7183   26.7653  -75.8370 H         1 UNK         0.3022 
    113 H113      -76.6517   23.6106  -74.6795 H         1 UNK         0.0747 
    114 H114      -77.5985   24.3210  -72.4863 H         1 UNK         0.0793 
    115 H115      -75.9770   24.9608  -72.7181 H         1 UNK         0.0793 
    116 H116      -77.3671   26.0119  -72.9212 H         1 UNK         0.0793 
    117 H117      -79.1313   25.0461  -74.4516 H         1 UNK         0.3047 
    118 H118      -80.3986   24.2515  -77.6497 H         1 UNK         0.0822 
    119 H119      -81.9930   22.6479  -76.5989 H         1 UNK         0.0807 
    120 H120      -80.8937   22.4221  -75.2389 H         1 UNK         0.0807 
    121 H121      -80.4251   21.8980  -76.8494 H         1 UNK         0.0807 
    122 H122      -81.6906   24.7792  -75.1210 H         1 UNK         0.2946 
    123 H123      -81.2008   28.2634  -75.0950 H         1 UNK         0.1144 
    124 H124      -83.6552   28.4890  -75.2849 H         1 UNK         0.0793 
    125 H125      -83.7852   26.8648  -75.9625 H         1 UNK         0.0793 
    126 H126      -82.9701   28.1372  -76.8615 H         1 UNK         0.0793 
    127 H127      -83.0106   26.8446  -73.5502 H         1 UNK         0.2896 
@<TRIPOS>BOND
     1    1    2 1    
     2    1   67 1    
     3    1   68 1    
     4    1   69 1    
     5    2    3 2    
     6    2    4 am   BACKBONE|DICT|INTERRES
     7    4    5 1    
     8    4   70 1    
     9    5    6 1    
    10    5   65 1    
    11    5   71 1    
    12    6    7 1    
    13    6   72 1    
    14    6   73 1    
    15    7    8 1    
    16    8    9 1    
    17    8   74 1    
    18    8   75 1    
    19    9   10 ar   
    20    9   14 ar   
    21   10   11 ar   
    22   10   76 1    
    23   11   12 ar   
    24   11   48 1    
    25   12   13 ar   
    26   12   77 1    
    27   13   14 ar   
    28   13   15 1    
    29   14   78 1    
    30   15   16 1    
    31   15   79 1    
    32   15   80 1    
    33   16   17 1    
    34   17   18 1    
    35   17   81 1    
    36   17   82 1    
    37   18   19 1    
    38   18   22 1    
    39   18   83 1    
    40   19   20 am   BACKBONE|DICT|INTERRES
    41   19   21 2    
    42   20   84 1    
    43   20   85 1    
    44   22   23 am   BACKBONE|DICT|INTERRES
    45   22   86 1    
    46   23   24 2    
    47   23   25 1    
    48   25   26 1    
    49   25   27 1    
    50   25   87 1    
    51   26   88 1    
    52   26   89 1    
    53   26   90 1    
    54   27   28 am   BACKBONE|DICT|INTERRES
    55   27   91 1    
    56   28   29 2    
    57   28   30 1    
    58   30   31 1    
    59   30   32 1    
    60   30   92 1    
    61   31   93 1    
    62   31   94 1    
    63   31   95 1    
    64   32   33 am   BACKBONE|DICT|INTERRES
    65   32   96 1    
    66   33   34 2    
    67   33   35 1    
    68   35   36 1    
    69   35   37 1    
    70   35   97 1    
    71   36   98 1    
    72   36   99 1    
    73   36  100 1    
    74   37   38 am   BACKBONE|DICT|INTERRES
    75   37  101 1    
    76   38   39 2    
    77   38   40 1    
    78   40   41 1    
    79   40   42 1    
    80   40  102 1    
    81   41  103 1    
    82   41  104 1    
    83   41  105 1    
    84   42   43 am   BACKBONE|DICT|INTERRES
    85   42  106 1    
    86   43   44 2    
    87   43   45 1    
    88   45   46 1    
    89   45   49 1    
    90   45  107 1    
    91   46   47 1    
    92   46  108 1    
    93   46  109 1    
    94   47   48 1    
    95   48  110 1    
    96   48  111 1    
    97   49   50 am   BACKBONE|DICT|INTERRES
    98   49  112 1    
    99   50   51 2    
   100   50   52 1    
   101   52   53 1    
   102   52   54 1    
   103   52  113 1    
   104   53  114 1    
   105   53  115 1    
   106   53  116 1    
   107   54   55 am   BACKBONE|DICT|INTERRES
   108   54  117 1    
   109   55   56 2    
   110   55   57 1    
   111   57   58 1    
   112   57   59 1    
   113   57  118 1    
   114   58  119 1    
   115   58  120 1    
   116   58  121 1    
   117   59   60 am   BACKBONE|DICT|INTERRES
   118   59  122 1    
   119   60   61 2    
   120   60   62 1    
   121   62   63 1    
   122   62   64 1    
   123   62  123 1    
   124   63  124 1    
   125   63  125 1    
   126   63  126 1    
   127   64   65 am   BACKBONE|DICT|INTERRES
   128   64  127 1    
   129   65   66 2    
@<TRIPOS>SUBSTRUCTURE
     1 UNK         1 GROUP             0       ****    0 ROOT    
