@<TRIPOS>MOLECULE
3R135
127   129    1
SMALL
USER_CHARGES


@<TRIPOS>ATOM
      1 CA        -85.7222   29.3491  -75.6677 C.3       0 UNK        -0.1998 
      2 C         -84.5180   28.4702  -75.3660 C.2       0 UNK         0.4909 
      3 O         -84.6596   27.2489  -75.2889 O.2       0 UNK        -0.5240 
      4 N         -83.3367   29.0834  -75.2000 N.am      1 UNK        -0.4739 
      5 CA        -82.0334   28.4615  -74.9240 C.3       1 UNK         0.0864 
      6 C6        -82.0254   27.6050  -73.6259 C.3       11 UNK        -0.0881 
      7 S7        -80.3483   27.1776  -73.0552 S.3       11 UNK        -0.2682 
      8 C8        -80.0487   28.4737  -71.8138 C.3       11 UNK         0.0289 
      9 C9        -78.6174   28.4290  -71.2961 C.ar      11 UNK        -0.0687 
     10 C10       -78.1951   27.3613  -70.4985 C.ar      11 UNK        -0.0823 
     11 C11       -76.8849   27.3103  -70.0125 C.ar      11 UNK        -0.0830 
     12 C12       -75.9962   28.3433  -70.3233 C.ar      11 UNK        -0.1021 
     13 C13       -76.4073   29.4227  -71.1109 C.ar      11 UNK        -0.0753 
     14 C14       -77.7193   29.4594  -71.5959 C.ar      11 UNK        -0.0933 
     15 C15       -75.4400   30.5592  -71.4108 C.3       11 UNK         0.0166 
     16 S16       -74.9495   30.5826  -73.1607 S.3       11 UNK        -0.2615 
     17 C17       -73.5754   31.7858  -73.1314 C.3       11 UNK        -0.0865 
     18 CA        -72.1886   31.1692  -73.4640 C.3       10 UNK         0.0862 
     19 C         -71.6270   30.2695  -72.3253 C.2       10 UNK         0.5551 
     20 N         -71.3338   30.8522  -71.1701 N.am      10 UNK        -0.7319 
     21 O         -71.4579   29.0602  -72.4671 O.2       10 UNK        -0.5018 
     22 N         -72.2051   30.5088  -74.7760 N.am      10 UNK        -0.4509 
     23 C         -71.1386   30.3252  -75.5604 C.2       10 UNK         0.4899 
     24 O         -70.0043   30.7273  -75.2940 O.2       10 UNK        -0.4839 
     25 CA        -71.4158   29.5781  -76.8731 C.3       9 UNK         0.0222 
     26 CB        -70.3450   29.8247  -77.9587 C.3       9 UNK        -0.1966 
     27 N         -71.6446   28.1495  -76.6381 N.am      9 UNK        -0.4218 
     28 C         -70.7545   27.2087  -76.2786 C.2       9 UNK         0.5020 
     29 O         -69.5593   27.4326  -76.0817 O.2       9 UNK        -0.5274 
     30 CA        -71.2593   25.7555  -76.1198 C.3       8 UNK         0.0270 
     31 CB        -71.1113   25.2858  -74.6628 C.3       8 UNK        -0.1976 
     32 N         -72.6467   25.5472  -76.5417 N.am      8 UNK        -0.4313 
     33 C         -73.1040   25.6117  -77.8003 C.2       8 UNK         0.5041 
     34 O         -72.3747   25.7234  -78.7861 O.2       8 UNK        -0.5577 
     35 CA        -74.6342   25.6032  -77.9931 C.3       7 UNK         0.0284 
     36 CB        -75.1017   24.2286  -78.4936 C.3       7 UNK        -0.1958 
     37 N         -75.3937   25.9813  -76.7918 N.am      7 UNK        -0.4454 
     38 C         -75.3075   27.1687  -76.1710 C.2       7 UNK         0.5089 
     39 O         -74.5769   28.0858  -76.5495 O.2       7 UNK        -0.5125 
     40 CA        -76.1316   27.3477  -74.8902 C.3       6 UNK         0.0408 
     41 CB        -77.5357   27.8657  -75.2177 C.3       6 UNK        -0.1791 
     42 N         -76.2118   26.1154  -74.1031 N.am      6 UNK        -0.4762 
     43 C         -75.2275   25.6844  -73.2984 C.2       6 UNK         0.5007 
     44 O         -74.1820   26.3060  -73.1142 O.2       6 UNK        -0.5032 
     45 CA        -75.4039   24.2965  -72.6406 C.3       5 UNK         0.0783 
     46 C46       -76.1917   24.3638  -71.3096 C.3       11 UNK        -0.0857 
     47 S47       -75.2137   25.0795  -69.9469 S.3       11 UNK        -0.2512 
     48 C48       -76.4367   26.1537  -69.1290 C.3       11 UNK         0.0225 
     49 N         -76.0135   23.3271  -73.5523 N.am      5 UNK        -0.4615 
     50 C         -75.4777   22.8986  -74.7028 C.2       4 UNK         0.5053 
     51 O         -74.3587   23.2213  -75.1001 O.2       4 UNK        -0.5105 
     52 CA        -76.3588   21.9827  -75.5740 C.3       4 UNK         0.0263 
     53 CB        -76.0325   20.5071  -75.2953 C.3       4 UNK        -0.1981 
     54 N         -77.8014   22.2024  -75.4082 N.am      4 UNK        -0.4224 
     55 C         -78.4416   23.3620  -75.6189 C.2       3 UNK         0.4895 
     56 O         -77.8799   24.4031  -75.9711 O.2       3 UNK        -0.5091 
     57 CA        -79.9431   23.3574  -75.2869 C.3       3 UNK         0.0250 
     58 CB        -80.1468   23.4351  -73.7638 C.3       3 UNK        -0.1996 
     59 N         -80.6734   24.4594  -75.9150 N.am      3 UNK        -0.4254 
     60 C         -80.9334   24.5690  -77.2257 C.2       2 UNK         0.5004 
     61 O         -80.5678   23.7408  -78.0618 O.2       2 UNK        -0.5226 
     62 CA        -81.7808   25.7724  -77.6869 C.3       2 UNK         0.0269 
     63 CB        -83.0579   25.2985  -78.4030 C.3       2 UNK        -0.1926 
     64 N         -82.1728   26.6541  -76.5830 N.am      2 UNK        -0.4687 
     65 C         -81.4759   27.7120  -76.1539 C.2       1 UNK         0.5165 
     66 O         -80.4457   28.1112  -76.6958 O.2       1 UNK        -0.5079 
     67 H67       -86.4852   29.2145  -74.9016 H         1 UNK         0.0900 
     68 H68       -86.1537   29.0755  -76.6302 H         1 UNK         0.0900 
     69 H69       -85.4589   30.4061  -75.7019 H         1 UNK         0.0900 
     70 H70       -83.3030   30.0884  -75.3062 H         1 UNK         0.2959 
     71 H71       -81.3559   29.3004  -74.7541 H         1 UNK         0.1079 
     72 H72       -82.5833   26.6772  -73.7604 H         1 UNK         0.0837 
     73 H73       -82.5394   28.1401  -72.8258 H         1 UNK         0.0837 
     74 H74       -80.7411   28.3449  -70.9806 H         1 UNK         0.0685 
     75 H75       -80.2665   29.4484  -72.2534 H         1 UNK         0.0685 
     76 H76       -78.8914   26.5682  -70.2618 H         1 UNK         0.1434 
     77 H77       -74.9829   28.3049  -69.9467 H         1 UNK         0.1329 
     78 H78       -78.0370   30.2930  -72.2072 H         1 UNK         0.1335 
     79 H79       -75.9048   31.5119  -71.1530 H         1 UNK         0.0680 
     80 H80       -74.5466   30.4704  -70.7902 H         1 UNK         0.0680 
     81 H81       -73.8053   32.5598  -73.8651 H         1 UNK         0.1032 
     82 H82       -73.5505   32.3059  -72.1723 H         1 UNK         0.1032 
     83 H83       -71.4908   32.0053  -73.5447 H         1 UNK         0.0461 
     84 H84       -70.9694   30.2875  -70.4189 H         1 UNK         0.3453 
     85 H85       -71.4487   31.8447  -71.0380 H         1 UNK         0.3453 
     86 H86       -73.0892   30.0984  -75.0432 H         1 UNK         0.2984 
     87 H87       -72.3564   29.9678  -77.2662 H         1 UNK         0.0554 
     88 H88       -70.5878   29.2982  -78.8816 H         1 UNK         0.0847 
     89 H89       -69.3519   29.5057  -77.6421 H         1 UNK         0.0847 
     90 H90       -70.2776   30.8865  -78.1983 H         1 UNK         0.0847 
     91 H91       -72.6183   27.8684  -76.7116 H         1 UNK         0.3141 
     92 H92       -70.6254   25.1255  -76.7470 H         1 UNK         0.0743 
     93 H93       -70.0682   25.3193  -74.3457 H         1 UNK         0.0784 
     94 H94       -71.6773   25.9189  -73.9783 H         1 UNK         0.0784 
     95 H95       -71.4560   24.2591  -74.5358 H         1 UNK         0.0784 
     96 H96       -73.3241   25.3961  -75.8055 H         1 UNK         0.3213 
     97 H97       -74.8686   26.3426  -78.7618 H         1 UNK         0.0855 
     98 H98       -74.7292   23.4271  -77.8570 H         1 UNK         0.0814 
     99 H99       -74.7226   24.0372  -79.4983 H         1 UNK         0.0814 
    100 H100      -76.1890   24.1587  -78.5369 H         1 UNK         0.0814 
    101 H101      -76.0624   25.3064  -76.4347 H         1 UNK         0.3105 
    102 H102      -75.6337   28.1078  -74.2896 H         1 UNK         0.0547 
    103 H103      -78.0319   28.2246  -74.3187 H         1 UNK         0.0837 
    104 H104      -77.4969   28.7060  -75.9122 H         1 UNK         0.0837 
    105 H105      -78.1601   27.0950  -75.6700 H         1 UNK         0.0837 
    106 H106      -77.0114   25.5193  -74.2754 H         1 UNK         0.3020 
    107 H107      -74.4000   23.9235  -72.4227 H         1 UNK         0.1245 
    108 H108      -76.4724   23.3586  -70.9910 H         1 UNK         0.0781 
    109 H109      -77.1301   24.9040  -71.4427 H         1 UNK         0.0781 
    110 H110      -75.9957   26.5549  -68.2154 H         1 UNK         0.0836 
    111 H111      -77.2887   25.5491  -68.8137 H         1 UNK         0.0836 
    112 H112      -76.9338   22.9955  -73.3068 H         1 UNK         0.3022 
    113 H113      -76.1232   22.1879  -76.6177 H         1 UNK         0.0747 
    114 H114      -76.5760   19.8450  -75.9697 H         1 UNK         0.0793 
    115 H115      -74.9691   20.3093  -75.4393 H         1 UNK         0.0793 
    116 H116      -76.2807   20.2237  -74.2716 H         1 UNK         0.0793 
    117 H117      -78.3412   21.4033  -75.1071 H         1 UNK         0.3047 
    118 H118      -80.3735   22.4224  -75.6523 H         1 UNK         0.0822 
    119 H119      -79.7263   22.5623  -73.2631 H         1 UNK         0.0807 
    120 H120      -81.2049   23.4723  -73.5037 H         1 UNK         0.0807 
    121 H121      -79.6661   24.3156  -73.3365 H         1 UNK         0.0807 
    122 H122      -80.9789   25.2058  -75.3089 H         1 UNK         0.2946 
    123 H123      -81.1748   26.3313  -78.4038 H         1 UNK         0.1144 
    124 H124      -82.8181   24.6757  -79.2659 H         1 UNK         0.0793 
    125 H125      -83.6429   26.1426  -78.7688 H         1 UNK         0.0793 
    126 H126      -83.6956   24.7102  -77.7419 H         1 UNK         0.0793 
    127 H127      -83.0546   26.4569  -76.1175 H         1 UNK         0.2896 
@<TRIPOS>BOND
     1    1    2 1    
     2    1   67 1    
     3    1   68 1    
     4    1   69 1    
     5    2    3 2    
     6    2    4 am   BACKBONE|DICT|INTERRES
     7    4    5 1    
     8    4   70 1    
     9    5    6 1    
    10    5   65 1    
    11    5   71 1    
    12    6    7 1    
    13    6   72 1    
    14    6   73 1    
    15    7    8 1    
    16    8    9 1    
    17    8   74 1    
    18    8   75 1    
    19    9   10 ar   
    20    9   14 ar   
    21   10   11 ar   
    22   10   76 1    
    23   11   12 ar   
    24   11   48 1    
    25   12   13 ar   
    26   12   77 1    
    27   13   14 ar   
    28   13   15 1    
    29   14   78 1    
    30   15   16 1    
    31   15   79 1    
    32   15   80 1    
    33   16   17 1    
    34   17   18 1    
    35   17   81 1    
    36   17   82 1    
    37   18   19 1    
    38   18   22 1    
    39   18   83 1    
    40   19   20 am   BACKBONE|DICT|INTERRES
    41   19   21 2    
    42   20   84 1    
    43   20   85 1    
    44   22   23 am   BACKBONE|DICT|INTERRES
    45   22   86 1    
    46   23   24 2    
    47   23   25 1    
    48   25   26 1    
    49   25   27 1    
    50   25   87 1    
    51   26   88 1    
    52   26   89 1    
    53   26   90 1    
    54   27   28 am   BACKBONE|DICT|INTERRES
    55   27   91 1    
    56   28   29 2    
    57   28   30 1    
    58   30   31 1    
    59   30   32 1    
    60   30   92 1    
    61   31   93 1    
    62   31   94 1    
    63   31   95 1    
    64   32   33 am   BACKBONE|DICT|INTERRES
    65   32   96 1    
    66   33   34 2    
    67   33   35 1    
    68   35   36 1    
    69   35   37 1    
    70   35   97 1    
    71   36   98 1    
    72   36   99 1    
    73   36  100 1    
    74   37   38 am   BACKBONE|DICT|INTERRES
    75   37  101 1    
    76   38   39 2    
    77   38   40 1    
    78   40   41 1    
    79   40   42 1    
    80   40  102 1    
    81   41  103 1    
    82   41  104 1    
    83   41  105 1    
    84   42   43 am   BACKBONE|DICT|INTERRES
    85   42  106 1    
    86   43   44 2    
    87   43   45 1    
    88   45   46 1    
    89   45   49 1    
    90   45  107 1    
    91   46   47 1    
    92   46  108 1    
    93   46  109 1    
    94   47   48 1    
    95   48  110 1    
    96   48  111 1    
    97   49   50 am   BACKBONE|DICT|INTERRES
    98   49  112 1    
    99   50   51 2    
   100   50   52 1    
   101   52   53 1    
   102   52   54 1    
   103   52  113 1    
   104   53  114 1    
   105   53  115 1    
   106   53  116 1    
   107   54   55 am   BACKBONE|DICT|INTERRES
   108   54  117 1    
   109   55   56 2    
   110   55   57 1    
   111   57   58 1    
   112   57   59 1    
   113   57  118 1    
   114   58  119 1    
   115   58  120 1    
   116   58  121 1    
   117   59   60 am   BACKBONE|DICT|INTERRES
   118   59  122 1    
   119   60   61 2    
   120   60   62 1    
   121   62   63 1    
   122   62   64 1    
   123   62  123 1    
   124   63  124 1    
   125   63  125 1    
   126   63  126 1    
   127   64   65 am   BACKBONE|DICT|INTERRES
   128   64  127 1    
   129   65   66 2    
@<TRIPOS>SUBSTRUCTURE
     1 UNK         1 GROUP             0       ****    0 ROOT    
