@<TRIPOS>MOLECULE
3R135
127   129    1
SMALL
USER_CHARGES


@<TRIPOS>ATOM
      1 CA        -77.6628   25.9176  -73.5378 C.3       0 UNK        -0.1998 
      2 C         -78.2547   25.3193  -72.2725 C.2       0 UNK         0.4909 
      3 O         -77.8942   24.2077  -71.8867 O.2       0 UNK        -0.5240 
      4 N         -79.1719   26.0488  -71.6245 N.am      1 UNK        -0.4739 
      5 CA        -79.8759   25.6203  -70.4071 C.3       1 UNK         0.0864 
      6 C6        -80.2923   26.8298  -69.5307 C.3       11 UNK        -0.0881 
      7 S7        -81.4710   27.9770  -70.3310 S.3       11 UNK        -0.2682 
      8 C8        -80.5011   29.5134  -70.4313 C.3       11 UNK         0.0289 
      9 C9        -79.4920   29.4724  -71.5683 C.ar      11 UNK        -0.0687 
     10 C10       -79.9204   29.6621  -72.8842 C.ar      11 UNK        -0.0823 
     11 C11       -79.0039   29.6604  -73.9394 C.ar      11 UNK        -0.0830 
     12 C12       -77.6456   29.4613  -73.6694 C.ar      11 UNK        -0.1021 
     13 C13       -77.2071   29.2555  -72.3567 C.ar      11 UNK        -0.0753 
     14 C14       -78.1342   29.2671  -71.3100 C.ar      11 UNK        -0.0933 
     15 C15       -75.7384   28.9938  -72.0605 C.3       11 UNK         0.0166 
     16 S16       -74.8586   30.5159  -71.6013 S.3       11 UNK        -0.2615 
     17 C17       -74.4319   31.2145  -73.2378 C.3       11 UNK        -0.0865 
     18 CA        -72.9076   31.4297  -73.4382 C.3       10 UNK         0.0862 
     19 C         -72.3763   32.6269  -72.5918 C.2       10 UNK         0.5551 
     20 N         -71.4864   32.4200  -71.6284 N.am      10 UNK        -0.7319 
     21 O         -72.7736   33.7659  -72.8254 O.2       10 UNK        -0.5018 
     22 N         -72.1543   30.1689  -73.3065 N.am      10 UNK        -0.4509 
     23 C         -70.8984   29.9797  -73.7344 C.2       10 UNK         0.4899 
     24 O         -70.2372   30.8338  -74.3257 O.2       10 UNK        -0.4839 
     25 CA        -70.2627   28.6067  -73.4501 C.3       9 UNK         0.0222 
     26 CB        -69.6294   28.5898  -72.0490 C.3       9 UNK        -0.1966 
     27 N         -71.1900   27.4772  -73.5826 N.am      9 UNK        -0.4218 
     28 C         -71.7486   27.0831  -74.7357 C.2       9 UNK         0.5020 
     29 O         -71.5725   27.6595  -75.8116 O.2       9 UNK        -0.5274 
     30 CA        -72.6566   25.8398  -74.6553 C.3       8 UNK         0.0270 
     31 CB        -74.0003   26.1793  -73.9931 C.3       8 UNK        -0.1976 
     32 N         -72.9270   25.2696  -75.9745 N.am      8 UNK        -0.4313 
     33 C         -72.0462   24.5913  -76.7211 C.2       8 UNK         0.5041 
     34 O         -70.9242   24.2609  -76.3332 O.2       8 UNK        -0.5577 
     35 CA        -72.4937   24.2191  -78.1439 C.3       7 UNK         0.0284 
     36 CB        -73.1521   22.8297  -78.1569 C.3       7 UNK        -0.1958 
     37 N         -73.4226   25.2116  -78.6937 N.am      7 UNK        -0.4454 
     38 C         -73.0365   26.3422  -79.3045 C.2       7 UNK         0.5089 
     39 O         -71.8609   26.6205  -79.5434 O.2       7 UNK        -0.5125 
     40 CA        -74.1354   27.3280  -79.7465 C.3       6 UNK         0.0408 
     41 CB        -74.4477   27.1431  -81.2402 C.3       6 UNK        -0.1791 
     42 N         -75.3778   27.2085  -78.9798 N.am      6 UNK        -0.4762 
     43 C         -75.5474   27.6379  -77.7200 C.2       6 UNK         0.5007 
     44 O         -74.6826   28.2276  -77.0753 O.2       6 UNK        -0.5032 
     45 CA        -76.9112   27.3459  -77.0571 C.3       5 UNK         0.0783 
     46 C46       -77.8455   28.5652  -77.2387 C.3       11 UNK        -0.0857 
     47 S47       -79.4396   28.3815  -76.3684 S.3       11 UNK        -0.2512 
     48 C48       -79.4919   29.8990  -75.3612 C.3       11 UNK         0.0225 
     49 N         -77.5387   26.1030  -77.5303 N.am      5 UNK        -0.4615 
     50 C         -76.9892   24.8818  -77.4926 C.2       4 UNK         0.5053 
     51 O         -75.8572   24.6608  -77.0577 O.2       4 UNK        -0.5105 
     52 CA        -77.8400   23.7427  -78.0856 C.3       4 UNK         0.0263 
     53 CB        -77.1920   22.3519  -77.9133 C.3       4 UNK        -0.1981 
     54 N         -79.2260   23.7512  -77.5956 N.am      4 UNK        -0.4224 
     55 C         -79.6334   23.5486  -76.3341 C.2       3 UNK         0.4895 
     56 O         -78.8764   23.3258  -75.3861 O.2       3 UNK        -0.5091 
     57 CA        -81.1502   23.5731  -76.0957 C.3       3 UNK         0.0250 
     58 CB        -81.8428   22.3860  -76.7978 C.3       3 UNK        -0.1996 
     59 N         -81.3813   23.5117  -74.6554 N.am      3 UNK        -0.4254 
     60 C         -82.5256   23.7656  -74.0106 C.2       2 UNK         0.5004 
     61 O         -83.5701   24.1148  -74.5607 O.2       2 UNK        -0.5226 
     62 CA        -82.4760   23.6283  -72.4857 C.3       2 UNK         0.0269 
     63 CB        -82.3560   22.1434  -72.0799 C.3       2 UNK        -0.1926 
     64 N         -81.3633   24.4291  -71.9741 N.am      2 UNK        -0.4687 
     65 C         -81.0627   24.6677  -70.6912 C.2       1 UNK         0.5165 
     66 O         -81.6849   24.1825  -69.7447 O.2       1 UNK        -0.5079 
     67 H67       -76.7974   26.5277  -73.2902 H         1 UNK         0.0900 
     68 H68       -78.3898   26.5393  -74.0599 H         1 UNK         0.0900 
     69 H69       -77.3386   25.1325  -74.2201 H         1 UNK         0.0900 
     70 H70       -79.4194   26.9692  -71.9651 H         1 UNK         0.2959 
     71 H71       -79.1755   25.0317  -69.8097 H         1 UNK         0.1079 
     72 H72       -80.7412   26.4832  -68.5979 H         1 UNK         0.0837 
     73 H73       -79.3991   27.3774  -69.2276 H         1 UNK         0.0837 
     74 H74       -81.1859   30.3476  -70.5910 H         1 UNK         0.0685 
     75 H75       -80.0100   29.7062  -69.4762 H         1 UNK         0.0685 
     76 H76       -80.9721   29.8201  -73.0820 H         1 UNK         0.1434 
     77 H77       -76.9327   29.4578  -74.4814 H         1 UNK         0.1329 
     78 H78       -77.7955   29.1170  -70.2940 H         1 UNK         0.1335 
     79 H79       -75.6527   28.2780  -71.2415 H         1 UNK         0.0680 
     80 H80       -75.2513   28.5323  -72.9180 H         1 UNK         0.0680 
     81 H81       -74.9756   32.1526  -73.3659 H         1 UNK         0.1032 
     82 H82       -74.8038   30.5617  -74.0280 H         1 UNK         0.1032 
     83 H83       -72.7800   31.7461  -74.4754 H         1 UNK         0.0461 
     84 H84       -71.1468   33.2021  -71.0913 H         1 UNK         0.3453 
     85 H85       -71.1618   31.4884  -71.4283 H         1 UNK         0.3453 
     86 H86       -72.6183   29.4262  -72.8063 H         1 UNK         0.2984 
     87 H87       -69.4632   28.4614  -74.1800 H         1 UNK         0.0554 
     88 H88       -70.3779   28.6913  -71.2622 H         1 UNK         0.0847 
     89 H89       -68.9201   29.4106  -71.9315 H         1 UNK         0.0847 
     90 H90       -69.0798   27.6650  -71.8725 H         1 UNK         0.0847 
     91 H91       -71.3828   26.9478  -72.7442 H         1 UNK         0.3141 
     92 H92       -72.1493   25.0825  -74.0537 H         1 UNK         0.0743 
     93 H93       -73.8596   26.5384  -72.9732 H         1 UNK         0.0784 
     94 H94       -74.5331   26.9512  -74.5492 H         1 UNK         0.0784 
     95 H95       -74.6442   25.3011  -73.9377 H         1 UNK         0.0784 
     96 H96       -73.8286   25.4780  -76.3820 H         1 UNK         0.3213 
     97 H97       -71.6024   24.1739  -78.7741 H         1 UNK         0.0855 
     98 H98       -72.4453   22.0648  -77.8325 H         1 UNK         0.0814 
     99 H99       -73.4889   22.5566  -79.1569 H         1 UNK         0.0814 
    100 H100      -74.0097   22.7804  -77.4856 H         1 UNK         0.0814 
    101 H101      -74.4053   25.0730  -78.4897 H         1 UNK         0.3105 
    102 H102      -73.7438   28.3379  -79.6056 H         1 UNK         0.0547 
    103 H103      -73.5465   27.2592  -81.8440 H         1 UNK         0.0837 
    104 H104      -75.1666   27.8835  -81.5912 H         1 UNK         0.0837 
    105 H105      -74.8535   26.1526  -81.4500 H         1 UNK         0.0837 
    106 H106      -76.1520   26.7462  -79.4349 H         1 UNK         0.3020 
    107 H107      -76.7153   27.2184  -75.9910 H         1 UNK         0.1245 
    108 H108      -78.0614   28.7265  -78.2968 H         1 UNK         0.0781 
    109 H109      -77.3465   29.4736  -76.8966 H         1 UNK         0.0781 
    110 H110      -80.5227   30.2566  -75.3490 H         1 UNK         0.0836 
    111 H111      -78.9136   30.6988  -75.8252 H         1 UNK         0.0836 
    112 H112      -78.4792   26.1974  -77.8853 H         1 UNK         0.3022 
    113 H113      -77.8972   23.9383  -79.1575 H         1 UNK         0.0747 
    114 H114      -77.8218   21.5654  -78.3287 H         1 UNK         0.0793 
    115 H115      -76.2335   22.3037  -78.4306 H         1 UNK         0.0793 
    116 H116      -77.0063   22.1153  -76.8651 H         1 UNK         0.0793 
    117 H117      -79.9324   23.9246  -78.2978 H         1 UNK         0.3047 
    118 H118      -81.5454   24.5167  -76.4778 H         1 UNK         0.0822 
    119 H119      -82.9210   22.3989  -76.6387 H         1 UNK         0.0807 
    120 H120      -81.4645   21.4300  -76.4334 H         1 UNK         0.0807 
    121 H121      -81.6829   22.4106  -77.8761 H         1 UNK         0.0807 
    122 H122      -80.5537   23.2491  -74.1318 H         1 UNK         0.2946 
    123 H123      -83.4062   24.0329  -72.0807 H         1 UNK         0.1144 
    124 H124      -83.1259   21.5428  -72.5664 H         1 UNK         0.0793 
    125 H125      -82.4818   22.0066  -71.0062 H         1 UNK         0.0793 
    126 H126      -81.3890   21.7230  -72.3581 H         1 UNK         0.0793 
    127 H127      -80.8134   24.9109  -72.6719 H         1 UNK         0.2896 
@<TRIPOS>BOND
     1    1    2 1    
     2    1   67 1    
     3    1   68 1    
     4    1   69 1    
     5    2    3 2    
     6    2    4 am   BACKBONE|DICT|INTERRES
     7    4    5 1    
     8    4   70 1    
     9    5    6 1    
    10    5   65 1    
    11    5   71 1    
    12    6    7 1    
    13    6   72 1    
    14    6   73 1    
    15    7    8 1    
    16    8    9 1    
    17    8   74 1    
    18    8   75 1    
    19    9   10 ar   
    20    9   14 ar   
    21   10   11 ar   
    22   10   76 1    
    23   11   12 ar   
    24   11   48 1    
    25   12   13 ar   
    26   12   77 1    
    27   13   14 ar   
    28   13   15 1    
    29   14   78 1    
    30   15   16 1    
    31   15   79 1    
    32   15   80 1    
    33   16   17 1    
    34   17   18 1    
    35   17   81 1    
    36   17   82 1    
    37   18   19 1    
    38   18   22 1    
    39   18   83 1    
    40   19   20 am   BACKBONE|DICT|INTERRES
    41   19   21 2    
    42   20   84 1    
    43   20   85 1    
    44   22   23 am   BACKBONE|DICT|INTERRES
    45   22   86 1    
    46   23   24 2    
    47   23   25 1    
    48   25   26 1    
    49   25   27 1    
    50   25   87 1    
    51   26   88 1    
    52   26   89 1    
    53   26   90 1    
    54   27   28 am   BACKBONE|DICT|INTERRES
    55   27   91 1    
    56   28   29 2    
    57   28   30 1    
    58   30   31 1    
    59   30   32 1    
    60   30   92 1    
    61   31   93 1    
    62   31   94 1    
    63   31   95 1    
    64   32   33 am   BACKBONE|DICT|INTERRES
    65   32   96 1    
    66   33   34 2    
    67   33   35 1    
    68   35   36 1    
    69   35   37 1    
    70   35   97 1    
    71   36   98 1    
    72   36   99 1    
    73   36  100 1    
    74   37   38 am   BACKBONE|DICT|INTERRES
    75   37  101 1    
    76   38   39 2    
    77   38   40 1    
    78   40   41 1    
    79   40   42 1    
    80   40  102 1    
    81   41  103 1    
    82   41  104 1    
    83   41  105 1    
    84   42   43 am   BACKBONE|DICT|INTERRES
    85   42  106 1    
    86   43   44 2    
    87   43   45 1    
    88   45   46 1    
    89   45   49 1    
    90   45  107 1    
    91   46   47 1    
    92   46  108 1    
    93   46  109 1    
    94   47   48 1    
    95   48  110 1    
    96   48  111 1    
    97   49   50 am   BACKBONE|DICT|INTERRES
    98   49  112 1    
    99   50   51 2    
   100   50   52 1    
   101   52   53 1    
   102   52   54 1    
   103   52  113 1    
   104   53  114 1    
   105   53  115 1    
   106   53  116 1    
   107   54   55 am   BACKBONE|DICT|INTERRES
   108   54  117 1    
   109   55   56 2    
   110   55   57 1    
   111   57   58 1    
   112   57   59 1    
   113   57  118 1    
   114   58  119 1    
   115   58  120 1    
   116   58  121 1    
   117   59   60 am   BACKBONE|DICT|INTERRES
   118   59  122 1    
   119   60   61 2    
   120   60   62 1    
   121   62   63 1    
   122   62   64 1    
   123   62  123 1    
   124   63  124 1    
   125   63  125 1    
   126   63  126 1    
   127   64   65 am   BACKBONE|DICT|INTERRES
   128   64  127 1    
   129   65   66 2    
@<TRIPOS>SUBSTRUCTURE
     1 UNK         1 GROUP             0       ****    0 ROOT    
