@<TRIPOS>MOLECULE
3R135
127   129    1
SMALL
USER_CHARGES


@<TRIPOS>ATOM
      1 CA        -81.6606   28.4286  -75.8712 C.3       0 UNK        -0.1998 
      2 C         -81.0257   27.4287  -74.9182 C.2       0 UNK         0.4909 
      3 O         -80.0403   26.7817  -75.2764 O.2       0 UNK        -0.5240 
      4 N         -81.5756   27.3010  -73.7024 N.am      1 UNK        -0.4739 
      5 CA        -81.0975   26.3762  -72.6649 C.3       1 UNK         0.0864 
      6 C6        -81.7837   26.5929  -71.2955 C.3       11 UNK        -0.0881 
      7 S7        -81.7707   28.3299  -70.7401 S.3       11 UNK        -0.2682 
      8 C8        -80.1825   28.4399  -69.8473 C.3       11 UNK         0.0289 
      9 C9        -78.9848   28.8427  -70.7094 C.ar      11 UNK        -0.0687 
     10 C10       -79.1093   29.7526  -71.7683 C.ar      11 UNK        -0.0823 
     11 C11       -77.9828   30.2020  -72.4664 C.ar      11 UNK        -0.0830 
     12 C12       -76.7182   29.7407  -72.0888 C.ar      11 UNK        -0.1021 
     13 C13       -76.5761   28.8250  -71.0425 C.ar      11 UNK        -0.0753 
     14 C14       -77.7129   28.3733  -70.3654 C.ar      11 UNK        -0.0933 
     15 C15       -75.1891   28.3987  -70.5842 C.3       11 UNK         0.0166 
     16 S16       -74.2239   27.5977  -71.9027 S.3       11 UNK        -0.2615 
     17 C17       -72.5662   27.6618  -71.1418 C.3       11 UNK        -0.0865 
     18 CA        -71.7983   28.9575  -71.5193 C.3       10 UNK         0.0862 
     19 C         -70.5236   29.1357  -70.6430 C.2       10 UNK         0.5551 
     20 N         -69.3272   29.2243  -71.2119 N.am      10 UNK        -0.7319 
     21 O         -70.6250   29.2045  -69.4206 O.2       10 UNK        -0.5018 
     22 N         -71.5511   29.0300  -72.9681 N.am      10 UNK        -0.4509 
     23 C         -71.4207   30.1553  -73.6828 C.2       10 UNK         0.4899 
     24 O         -71.5368   31.2832  -73.2025 O.2       10 UNK        -0.4839 
     25 CA        -71.0758   30.0104  -75.1811 C.3       9 UNK         0.0222 
     26 CB        -69.7746   30.7610  -75.5165 C.3       9 UNK        -0.1966 
     27 N         -70.9376   28.6132  -75.6094 N.am      9 UNK        -0.4218 
     28 C         -71.9568   27.8082  -75.9348 C.2       9 UNK         0.5020 
     29 O         -73.1291   28.1774  -76.0000 O.2       9 UNK        -0.5274 
     30 CA        -71.5888   26.3395  -76.1743 C.3       8 UNK         0.0270 
     31 CB        -71.2333   25.6402  -74.8473 C.3       8 UNK        -0.1976 
     32 N         -72.7011   25.6280  -76.7991 N.am      8 UNK        -0.4313 
     33 C         -72.5655   24.6302  -77.6804 C.2       8 UNK         0.5041 
     34 O         -71.4764   24.2275  -78.0939 O.2       8 UNK        -0.5577 
     35 CA        -73.8453   23.9404  -78.1799 C.3       7 UNK         0.0284 
     36 CB        -74.2427   22.8002  -77.2282 C.3       7 UNK        -0.1958 
     37 N         -74.9818   24.8453  -78.3458 N.am      7 UNK        -0.4454 
     38 C         -75.0843   25.7912  -79.2897 C.2       7 UNK         0.5089 
     39 O         -74.2120   26.0275  -80.1260 O.2       7 UNK        -0.5125 
     40 CA        -76.3864   26.6073  -79.3050 C.3       6 UNK         0.0408 
     41 CB        -77.5145   25.8285  -80.0014 C.3       6 UNK        -0.1791 
     42 N         -76.7953   26.9571  -77.9451 N.am      6 UNK        -0.4762 
     43 C         -76.3792   28.0509  -77.2894 C.2       6 UNK         0.5007 
     44 O         -75.7285   28.9503  -77.8229 O.2       6 UNK        -0.5032 
     45 CA        -76.7648   28.1731  -75.7981 C.3       5 UNK         0.0783 
     46 C46       -77.8674   29.2451  -75.5821 C.3       11 UNK        -0.0857 
     47 S47       -77.1784   30.8581  -75.0896 S.3       11 UNK        -0.2512 
     48 C48       -78.1419   31.2325  -73.5830 C.3       11 UNK         0.0225 
     49 N         -77.1497   26.8863  -75.2083 N.am      5 UNK        -0.4615 
     50 C         -76.2848   25.9147  -74.8889 C.2       4 UNK         0.5053 
     51 O         -75.0776   25.9640  -75.1144 O.2       4 UNK        -0.5105 
     52 CA        -76.8696   24.6432  -74.2580 C.3       4 UNK         0.0263 
     53 CB        -77.0910   24.8510  -72.7508 C.3       4 UNK        -0.1981 
     54 N         -78.1107   24.1762  -74.8853 N.am      4 UNK        -0.4224 
     55 C         -78.2376   23.8482  -76.1833 C.2       3 UNK         0.4895 
     56 O         -77.3383   24.0171  -77.0065 O.2       3 UNK        -0.5091 
     57 CA        -79.5555   23.2211  -76.6711 C.3       3 UNK         0.0250 
     58 CB        -79.3166   21.8225  -77.2692 C.3       3 UNK        -0.1996 
     59 N         -80.5633   23.1400  -75.6166 N.am      3 UNK        -0.4254 
     60 C         -81.8815   23.2724  -75.7858 C.2       2 UNK         0.5004 
     61 O         -82.4346   23.3592  -76.8825 O.2       2 UNK        -0.5226 
     62 CA        -82.7204   23.3829  -74.5014 C.3       2 UNK         0.0269 
     63 CB        -82.6446   22.1087  -73.6343 C.3       2 UNK        -0.1926 
     64 N         -82.3892   24.5984  -73.7434 N.am      2 UNK        -0.4687 
     65 C         -81.2438   24.9088  -73.1134 C.2       1 UNK         0.5165 
     66 O         -80.3054   24.1253  -72.9567 O.2       1 UNK        -0.5079 
     67 H67       -81.8758   27.9499  -76.8260 H         1 UNK         0.0900 
     68 H68       -80.9809   29.2604  -76.0516 H         1 UNK         0.0900 
     69 H69       -82.5932   28.8309  -75.4762 H         1 UNK         0.0900 
     70 H70       -82.3613   27.8806  -73.4426 H         1 UNK         0.2959 
     71 H71       -80.0305   26.5690  -72.5353 H         1 UNK         0.1079 
     72 H72       -82.8292   26.2809  -71.3397 H         1 UNK         0.0837 
     73 H73       -81.3194   25.9664  -70.5314 H         1 UNK         0.0837 
     74 H74       -80.2914   29.1909  -69.0639 H         1 UNK         0.0685 
     75 H75       -79.9889   27.4965  -69.3349 H         1 UNK         0.0685 
     76 H76       -80.0836   30.1410  -72.0297 H         1 UNK         0.1434 
     77 H77       -75.8375   30.1047  -72.6004 H         1 UNK         0.1329 
     78 H78       -77.6023   27.6912  -69.5334 H         1 UNK         0.1335 
     79 H79       -74.6588   29.2854  -70.2343 H         1 UNK         0.0680 
     80 H80       -75.2509   27.7186  -69.7332 H         1 UNK         0.0680 
     81 H81       -72.6771   27.5707  -70.0593 H         1 UNK         0.1032 
     82 H82       -72.0047   26.7805  -71.4568 H         1 UNK         0.1032 
     83 H83       -72.4404   29.7998  -71.2546 H         1 UNK         0.0461 
     84 H84       -68.5118   29.3444  -70.6317 H         1 UNK         0.3453 
     85 H85       -69.2330   29.1790  -72.2131 H         1 UNK         0.3453 
     86 H86       -71.4648   28.1476  -73.4464 H         1 UNK         0.2984 
     87 H87       -71.8877   30.4752  -75.7445 H         1 UNK         0.0554 
     88 H88       -68.9220   30.3618  -74.9658 H         1 UNK         0.0847 
     89 H89       -69.8561   31.8196  -75.2659 H         1 UNK         0.0847 
     90 H90       -69.5453   30.7022  -76.5807 H         1 UNK         0.0847 
     91 H91       -70.0033   28.2283  -75.5902 H         1 UNK         0.3141 
     92 H92       -70.7215   26.3232  -76.8381 H         1 UNK         0.0743 
     93 H93       -70.3833   26.1154  -74.3568 H         1 UNK         0.0784 
     94 H94       -72.0723   25.6601  -74.1493 H         1 UNK         0.0784 
     95 H95       -70.9635   24.5966  -75.0110 H         1 UNK         0.0784 
     96 H96       -73.6260   25.9153  -76.4826 H         1 UNK         0.3213 
     97 H97       -73.6231   23.5048  -79.1565 H         1 UNK         0.0855 
     98 H98       -74.5016   23.1766  -76.2378 H         1 UNK         0.0814 
     99 H99       -73.4243   22.0896  -77.1050 H         1 UNK         0.0814 
    100 H100      -75.1003   22.2453  -77.6092 H         1 UNK         0.0814 
    101 H101      -75.7821   24.6774  -77.7397 H         1 UNK         0.3105 
    102 H102      -76.2087   27.5182  -79.8808 H         1 UNK         0.0547 
    103 H103      -77.2396   25.5846  -81.0283 H         1 UNK         0.0837 
    104 H104      -77.7398   24.8896  -79.4952 H         1 UNK         0.0837 
    105 H105      -78.4326   26.4146  -80.0431 H         1 UNK         0.0837 
    106 H106      -77.3041   26.2531  -77.4258 H         1 UNK         0.3020 
    107 H107      -75.8565   28.4888  -75.2768 H         1 UNK         0.1245 
    108 H108      -78.5485   28.9280  -74.7937 H         1 UNK         0.0781 
    109 H109      -78.4955   29.3776  -76.4652 H         1 UNK         0.0781 
    110 H110      -79.1911   31.3356  -73.8647 H         1 UNK         0.0836 
    111 H111      -77.8299   32.2061  -73.2031 H         1 UNK         0.0836 
    112 H112      -78.1461   26.7373  -75.0649 H         1 UNK         0.3022 
    113 H113      -76.1314   23.8484  -74.3823 H         1 UNK         0.0747 
    114 H114      -77.4531   23.9420  -72.2704 H         1 UNK         0.0793 
    115 H115      -76.1594   25.1302  -72.2566 H         1 UNK         0.0793 
    116 H116      -77.8103   25.6460  -72.5536 H         1 UNK         0.0793 
    117 H117      -78.9057   24.0957  -74.2616 H         1 UNK         0.3047 
    118 H118      -79.9239   23.8795  -77.4610 H         1 UNK         0.0822 
    119 H119      -80.2327   21.4104  -77.6926 H         1 UNK         0.0807 
    120 H120      -78.9494   21.1228  -76.5176 H         1 UNK         0.0807 
    121 H121      -78.5789   21.8581  -78.0721 H         1 UNK         0.0807 
    122 H122      -80.2315   23.1027  -74.6600 H         1 UNK         0.2946 
    123 H123      -83.7593   23.4967  -74.8167 H         1 UNK         0.1144 
    124 H124      -83.2932   22.1883  -72.7620 H         1 UNK         0.0793 
    125 H125      -81.6357   21.8991  -73.2794 H         1 UNK         0.0793 
    126 H126      -82.9724   21.2368  -74.2018 H         1 UNK         0.0793 
    127 H127      -83.0617   25.3471  -73.8388 H         1 UNK         0.2896 
@<TRIPOS>BOND
     1    1    2 1    
     2    1   67 1    
     3    1   68 1    
     4    1   69 1    
     5    2    3 2    
     6    2    4 am   BACKBONE|DICT|INTERRES
     7    4    5 1    
     8    4   70 1    
     9    5    6 1    
    10    5   65 1    
    11    5   71 1    
    12    6    7 1    
    13    6   72 1    
    14    6   73 1    
    15    7    8 1    
    16    8    9 1    
    17    8   74 1    
    18    8   75 1    
    19    9   10 ar   
    20    9   14 ar   
    21   10   11 ar   
    22   10   76 1    
    23   11   12 ar   
    24   11   48 1    
    25   12   13 ar   
    26   12   77 1    
    27   13   14 ar   
    28   13   15 1    
    29   14   78 1    
    30   15   16 1    
    31   15   79 1    
    32   15   80 1    
    33   16   17 1    
    34   17   18 1    
    35   17   81 1    
    36   17   82 1    
    37   18   19 1    
    38   18   22 1    
    39   18   83 1    
    40   19   20 am   BACKBONE|DICT|INTERRES
    41   19   21 2    
    42   20   84 1    
    43   20   85 1    
    44   22   23 am   BACKBONE|DICT|INTERRES
    45   22   86 1    
    46   23   24 2    
    47   23   25 1    
    48   25   26 1    
    49   25   27 1    
    50   25   87 1    
    51   26   88 1    
    52   26   89 1    
    53   26   90 1    
    54   27   28 am   BACKBONE|DICT|INTERRES
    55   27   91 1    
    56   28   29 2    
    57   28   30 1    
    58   30   31 1    
    59   30   32 1    
    60   30   92 1    
    61   31   93 1    
    62   31   94 1    
    63   31   95 1    
    64   32   33 am   BACKBONE|DICT|INTERRES
    65   32   96 1    
    66   33   34 2    
    67   33   35 1    
    68   35   36 1    
    69   35   37 1    
    70   35   97 1    
    71   36   98 1    
    72   36   99 1    
    73   36  100 1    
    74   37   38 am   BACKBONE|DICT|INTERRES
    75   37  101 1    
    76   38   39 2    
    77   38   40 1    
    78   40   41 1    
    79   40   42 1    
    80   40  102 1    
    81   41  103 1    
    82   41  104 1    
    83   41  105 1    
    84   42   43 am   BACKBONE|DICT|INTERRES
    85   42  106 1    
    86   43   44 2    
    87   43   45 1    
    88   45   46 1    
    89   45   49 1    
    90   45  107 1    
    91   46   47 1    
    92   46  108 1    
    93   46  109 1    
    94   47   48 1    
    95   48  110 1    
    96   48  111 1    
    97   49   50 am   BACKBONE|DICT|INTERRES
    98   49  112 1    
    99   50   51 2    
   100   50   52 1    
   101   52   53 1    
   102   52   54 1    
   103   52  113 1    
   104   53  114 1    
   105   53  115 1    
   106   53  116 1    
   107   54   55 am   BACKBONE|DICT|INTERRES
   108   54  117 1    
   109   55   56 2    
   110   55   57 1    
   111   57   58 1    
   112   57   59 1    
   113   57  118 1    
   114   58  119 1    
   115   58  120 1    
   116   58  121 1    
   117   59   60 am   BACKBONE|DICT|INTERRES
   118   59  122 1    
   119   60   61 2    
   120   60   62 1    
   121   62   63 1    
   122   62   64 1    
   123   62  123 1    
   124   63  124 1    
   125   63  125 1    
   126   63  126 1    
   127   64   65 am   BACKBONE|DICT|INTERRES
   128   64  127 1    
   129   65   66 2    
@<TRIPOS>SUBSTRUCTURE
     1 UNK         1 GROUP             0       ****    0 ROOT    
