@<TRIPOS>MOLECULE
3R135
127   129    1
SMALL
USER_CHARGES


@<TRIPOS>ATOM
      1 CA        -84.4210   27.5631  -73.0651 C.3       0 UNK        -0.1998 
      2 C         -83.3246   27.5842  -72.0032 C.2       0 UNK         0.4909 
      3 O         -83.5901   27.2251  -70.8578 O.2       0 UNK        -0.5240 
      4 N         -82.0877   27.9992  -72.3140 N.am      1 UNK        -0.4739 
      5 CA        -81.5845   28.4106  -73.6329 C.3       1 UNK         0.0864 
      6 C6        -80.2083   29.1105  -73.5248 C.3       11 UNK        -0.0881 
      7 S7        -80.2959   30.7253  -72.6713 S.3       11 UNK        -0.2682 
      8 C8        -79.9196   30.3303  -70.9295 C.3       11 UNK         0.0289 
      9 C9        -78.4889   29.8513  -70.7259 C.ar      11 UNK        -0.0687 
     10 C10       -78.2159   28.4847  -70.6326 C.ar      11 UNK        -0.0823 
     11 C11       -76.9057   28.0266  -70.4637 C.ar      11 UNK        -0.0830 
     12 C12       -75.8695   28.9577  -70.3354 C.ar      11 UNK        -0.1021 
     13 C13       -76.1292   30.3316  -70.4000 C.ar      11 UNK        -0.0753 
     14 C14       -77.4421   30.7708  -70.6041 C.ar      11 UNK        -0.0933 
     15 C15       -75.0065   31.3454  -70.1956 C.3       11 UNK         0.0166 
     16 S16       -73.5837   31.1020  -71.3117 S.3       11 UNK        -0.2615 
     17 C17       -74.3000   31.5029  -72.9395 C.3       11 UNK        -0.0865 
     18 CA        -74.5496   30.2293  -73.8006 C.3       10 UNK         0.0862 
     19 C         -75.9140   30.2864  -74.5328 C.2       10 UNK         0.5551 
     20 N         -77.0067   30.1375  -73.8019 N.am      10 UNK        -0.7319 
     21 O         -75.9946   30.4969  -75.7422 O.2       10 UNK        -0.5018 
     22 N         -73.4882   29.9828  -74.7818 N.am      10 UNK        -0.4509 
     23 C         -72.3226   29.3698  -74.5614 C.2       10 UNK         0.4899 
     24 O         -71.8841   29.0845  -73.4465 O.2       10 UNK        -0.4839 
     25 CA        -71.5376   28.9800  -75.8250 C.3       9 UNK         0.0222 
     26 CB        -70.1418   29.6339  -75.8850 C.3       9 UNK        -0.1966 
     27 N         -71.5085   27.5194  -75.9645 N.am      9 UNK        -0.4218 
     28 C         -70.7672   26.6158  -75.3043 C.2       9 UNK         0.5020 
     29 O         -69.8026   26.8930  -74.5898 O.2       9 UNK        -0.5274 
     30 CA        -71.1658   25.1313  -75.4442 C.3       8 UNK         0.0270 
     31 CB        -71.6508   24.5796  -74.0924 C.3       8 UNK        -0.1976 
     32 N         -72.1994   24.8756  -76.4532 N.am      8 UNK        -0.4313 
     33 C         -71.9851   24.8366  -77.7751 C.2       8 UNK         0.5041 
     34 O         -70.8776   24.9868  -78.2923 O.2       8 UNK        -0.5577 
     35 CA        -73.2132   24.6124  -78.6758 C.3       7 UNK         0.0284 
     36 CB        -73.5198   23.1119  -78.8064 C.3       7 UNK        -0.1958 
     37 N         -74.4110   25.3188  -78.2117 N.am      7 UNK        -0.4454 
     38 C         -74.5355   26.6525  -78.1451 C.2       7 UNK         0.5089 
     39 O         -73.6602   27.4420  -78.5005 O.2       7 UNK        -0.5125 
     40 CA        -75.8315   27.1992  -77.5194 C.3       6 UNK         0.0408 
     41 CB        -76.9900   27.1710  -78.5274 C.3       6 UNK        -0.1791 
     42 N         -76.2165   26.4922  -76.2947 N.am      6 UNK        -0.4762 
     43 C         -75.4509   26.4133  -75.1958 C.2       6 UNK         0.5007 
     44 O         -74.3474   26.9397  -75.0904 O.2       6 UNK        -0.5032 
     45 CA        -75.9815   25.5665  -74.0306 C.3       5 UNK         0.0783 
     46 C46       -77.0133   26.3779  -73.2167 C.3       11 UNK        -0.0857 
     47 S47       -77.5035   25.5491  -71.6701 S.3       11 UNK        -0.2512 
     48 C48       -76.5973   26.5305  -70.4190 C.3       11 UNK         0.0225 
     49 N         -76.4968   24.2828  -74.5133 N.am      5 UNK        -0.4615 
     50 C         -75.7376   23.3284  -75.0714 C.2       4 UNK         0.5053 
     51 O         -74.5142   23.4039  -75.1822 O.2       4 UNK        -0.5105 
     52 CA        -76.4711   22.1071  -75.6495 C.3       4 UNK         0.0263 
     53 CB        -76.8036   21.0986  -74.5385 C.3       4 UNK        -0.1981 
     54 N         -77.6957   22.4751  -76.3636 N.am      4 UNK        -0.4224 
     55 C         -77.7331   23.2240  -77.4762 C.2       3 UNK         0.4895 
     56 O         -76.7308   23.6205  -78.0694 O.2       3 UNK        -0.5091 
     57 CA        -79.1240   23.6448  -77.9840 C.3       3 UNK         0.0250 
     58 CB        -79.6770   22.6015  -78.9673 C.3       3 UNK        -0.1996 
     59 N         -80.0945   23.8708  -76.9060 N.am      3 UNK        -0.4254 
     60 C         -79.9602   24.7940  -75.9430 C.2       2 UNK         0.5004 
     61 O         -79.0015   25.5661  -75.8675 O.2       2 UNK        -0.5226 
     62 CA        -81.0376   24.7843  -74.8440 C.3       2 UNK         0.0269 
     63 CB        -80.7539   23.6545  -73.8387 C.3       2 UNK        -0.1926 
     64 N         -81.1276   26.0449  -74.1034 N.am      2 UNK        -0.4687 
     65 C         -81.5097   27.2232  -74.6160 C.2       1 UNK         0.5165 
     66 O         -81.8480   27.3853  -75.7889 O.2       1 UNK        -0.5079 
     67 H67       -84.4478   28.4902  -73.6358 H         1 UNK         0.0900 
     68 H68       -84.2783   26.7286  -73.7508 H         1 UNK         0.0900 
     69 H69       -85.3979   27.4427  -72.5971 H         1 UNK         0.0900 
     70 H70       -81.4033   28.0169  -71.5740 H         1 UNK         0.2959 
     71 H71       -82.2850   29.1320  -74.0580 H         1 UNK         0.1079 
     72 H72       -79.8160   29.3098  -74.5243 H         1 UNK         0.0837 
     73 H73       -79.4739   28.4630  -73.0465 H         1 UNK         0.0837 
     74 H74       -80.6298   29.5926  -70.5557 H         1 UNK         0.0685 
     75 H75       -80.0847   31.2275  -70.3312 H         1 UNK         0.0685 
     76 H76       -79.0241   27.7712  -70.7106 H         1 UNK         0.1434 
     77 H77       -74.8546   28.6166  -70.1812 H         1 UNK         0.1329 
     78 H78       -77.6562   31.8299  -70.6556 H         1 UNK         0.1335 
     79 H79       -74.6544   31.2645  -69.1664 H         1 UNK         0.0680 
     80 H80       -75.3747   32.3661  -70.3105 H         1 UNK         0.0680 
     81 H81       -75.2164   32.0729  -72.7729 H         1 UNK         0.1032 
     82 H82       -73.6301   32.1924  -73.4555 H         1 UNK         0.1032 
     83 H83       -74.6041   29.3484  -73.1567 H         1 UNK         0.0461 
     84 H84       -77.9041   30.2191  -74.2496 H         1 UNK         0.3453 
     85 H85       -76.9549   30.0016  -72.8026 H         1 UNK         0.3453 
     86 H86       -73.7881   30.1448  -75.7349 H         1 UNK         0.2984 
     87 H87       -72.0908   29.3345  -76.6965 H         1 UNK         0.0554 
     88 H88       -70.2299   30.7182  -75.9599 H         1 UNK         0.0847 
     89 H89       -69.5779   29.2915  -76.7525 H         1 UNK         0.0847 
     90 H90       -69.5503   29.4250  -74.9933 H         1 UNK         0.0847 
     91 H91       -72.2937   27.1444  -76.4819 H         1 UNK         0.3141 
     92 H92       -70.2655   24.5827  -75.7285 H         1 UNK         0.0743 
     93 H93       -70.8903   24.7036  -73.3204 H         1 UNK         0.0784 
     94 H94       -72.5498   25.0938  -73.7502 H         1 UNK         0.0784 
     95 H95       -71.8765   23.5149  -74.1552 H         1 UNK         0.0784 
     96 H96       -73.1340   24.6858  -76.1045 H         1 UNK         0.3213 
     97 H97       -72.9675   24.9971  -79.6679 H         1 UNK         0.0855 
     98 H98       -73.8086   22.6743  -77.8500 H         1 UNK         0.0814 
     99 H99       -72.6483   22.5642  -79.1676 H         1 UNK         0.0814 
    100 H100      -74.3307   22.9333  -79.5128 H         1 UNK         0.0814 
    101 H101      -75.2089   24.7435  -77.9492 H         1 UNK         0.3105 
    102 H102      -75.6512   28.2404  -77.2462 H         1 UNK         0.0547 
    103 H103      -77.9047   27.5753  -78.0933 H         1 UNK         0.0837 
    104 H104      -77.2011   26.1603  -78.8748 H         1 UNK         0.0837 
    105 H105      -76.7532   27.7725  -79.4058 H         1 UNK         0.0837 
    106 H106      -77.1340   26.0537  -76.2771 H         1 UNK         0.3020 
    107 H107      -75.1299   25.3552  -73.3796 H         1 UNK         0.1245 
    108 H108      -77.9154   26.5635  -73.7994 H         1 UNK         0.0781 
    109 H109      -76.6109   27.3648  -72.9861 H         1 UNK         0.0781 
    110 H110      -75.5289   26.3572  -70.5576 H         1 UNK         0.0836 
    111 H111      -76.8454   26.1510  -69.4271 H         1 UNK         0.0836 
    112 H112      -77.4996   24.1743  -74.5030 H         1 UNK         0.3022 
    113 H113      -75.7997   21.6237  -76.3626 H         1 UNK         0.0747 
    114 H114      -77.2523   20.1926  -74.9463 H         1 UNK         0.0793 
    115 H115      -75.9013   20.7985  -74.0035 H         1 UNK         0.0793 
    116 H116      -77.4942   21.5152  -73.8040 H         1 UNK         0.0793 
    117 H117      -78.5704   22.1822  -75.9548 H         1 UNK         0.3047 
    118 H118      -79.0048   24.5882  -78.5202 H         1 UNK         0.0822 
    119 H119      -80.6189   22.9301  -79.4072 H         1 UNK         0.0807 
    120 H120      -79.8485   21.6387  -78.4843 H         1 UNK         0.0807 
    121 H121      -78.9797   22.4337  -79.7896 H         1 UNK         0.0807 
    122 H122      -80.9050   23.2679  -76.8961 H         1 UNK         0.2946 
    123 H123      -82.0057   24.6068  -75.3179 H         1 UNK         0.1144 
    124 H124      -79.7987   23.7965  -73.3310 H         1 UNK         0.0793 
    125 H125      -80.7214   22.6816  -74.3307 H         1 UNK         0.0793 
    126 H126      -81.5313   23.5988  -73.0762 H         1 UNK         0.0793 
    127 H127      -80.8700   26.0126  -73.1281 H         1 UNK         0.2896 
@<TRIPOS>BOND
     1    1    2 1    
     2    1   67 1    
     3    1   68 1    
     4    1   69 1    
     5    2    3 2    
     6    2    4 am   BACKBONE|DICT|INTERRES
     7    4    5 1    
     8    4   70 1    
     9    5    6 1    
    10    5   65 1    
    11    5   71 1    
    12    6    7 1    
    13    6   72 1    
    14    6   73 1    
    15    7    8 1    
    16    8    9 1    
    17    8   74 1    
    18    8   75 1    
    19    9   10 ar   
    20    9   14 ar   
    21   10   11 ar   
    22   10   76 1    
    23   11   12 ar   
    24   11   48 1    
    25   12   13 ar   
    26   12   77 1    
    27   13   14 ar   
    28   13   15 1    
    29   14   78 1    
    30   15   16 1    
    31   15   79 1    
    32   15   80 1    
    33   16   17 1    
    34   17   18 1    
    35   17   81 1    
    36   17   82 1    
    37   18   19 1    
    38   18   22 1    
    39   18   83 1    
    40   19   20 am   BACKBONE|DICT|INTERRES
    41   19   21 2    
    42   20   84 1    
    43   20   85 1    
    44   22   23 am   BACKBONE|DICT|INTERRES
    45   22   86 1    
    46   23   24 2    
    47   23   25 1    
    48   25   26 1    
    49   25   27 1    
    50   25   87 1    
    51   26   88 1    
    52   26   89 1    
    53   26   90 1    
    54   27   28 am   BACKBONE|DICT|INTERRES
    55   27   91 1    
    56   28   29 2    
    57   28   30 1    
    58   30   31 1    
    59   30   32 1    
    60   30   92 1    
    61   31   93 1    
    62   31   94 1    
    63   31   95 1    
    64   32   33 am   BACKBONE|DICT|INTERRES
    65   32   96 1    
    66   33   34 2    
    67   33   35 1    
    68   35   36 1    
    69   35   37 1    
    70   35   97 1    
    71   36   98 1    
    72   36   99 1    
    73   36  100 1    
    74   37   38 am   BACKBONE|DICT|INTERRES
    75   37  101 1    
    76   38   39 2    
    77   38   40 1    
    78   40   41 1    
    79   40   42 1    
    80   40  102 1    
    81   41  103 1    
    82   41  104 1    
    83   41  105 1    
    84   42   43 am   BACKBONE|DICT|INTERRES
    85   42  106 1    
    86   43   44 2    
    87   43   45 1    
    88   45   46 1    
    89   45   49 1    
    90   45  107 1    
    91   46   47 1    
    92   46  108 1    
    93   46  109 1    
    94   47   48 1    
    95   48  110 1    
    96   48  111 1    
    97   49   50 am   BACKBONE|DICT|INTERRES
    98   49  112 1    
    99   50   51 2    
   100   50   52 1    
   101   52   53 1    
   102   52   54 1    
   103   52  113 1    
   104   53  114 1    
   105   53  115 1    
   106   53  116 1    
   107   54   55 am   BACKBONE|DICT|INTERRES
   108   54  117 1    
   109   55   56 2    
   110   55   57 1    
   111   57   58 1    
   112   57   59 1    
   113   57  118 1    
   114   58  119 1    
   115   58  120 1    
   116   58  121 1    
   117   59   60 am   BACKBONE|DICT|INTERRES
   118   59  122 1    
   119   60   61 2    
   120   60   62 1    
   121   62   63 1    
   122   62   64 1    
   123   62  123 1    
   124   63  124 1    
   125   63  125 1    
   126   63  126 1    
   127   64   65 am   BACKBONE|DICT|INTERRES
   128   64  127 1    
   129   65   66 2    
@<TRIPOS>SUBSTRUCTURE
     1 UNK         1 GROUP             0       ****    0 ROOT    
