@<TRIPOS>MOLECULE
3R135
127   129    1
SMALL
USER_CHARGES


@<TRIPOS>ATOM
      1 CA        -81.5913   25.8331  -72.7017 C.3       0 UNK        -0.1998 
      2 C         -80.4247   26.3272  -73.5431 C.2       0 UNK         0.4909 
      3 O         -79.3771   25.6811  -73.5590 O.2       0 UNK        -0.5240 
      4 N         -80.6133   27.4660  -74.2282 N.am      1 UNK        -0.4739 
      5 CA        -79.6235   28.2035  -75.0292 C.3       1 UNK         0.0864 
      6 C6        -78.5234   28.8711  -74.1672 C.3       11 UNK        -0.0881 
      7 S7        -79.2033   30.2348  -73.1535 S.3       11 UNK        -0.2682 
      8 C8        -79.4316   29.4650  -71.5156 C.3       11 UNK         0.0289 
      9 C9        -78.1170   28.9492  -70.9563 C.ar      11 UNK        -0.0687 
     10 C10       -77.8812   27.5763  -70.8671 C.ar      11 UNK        -0.0823 
     11 C11       -76.6406   27.1001  -70.4420 C.ar      11 UNK        -0.0830 
     12 C12       -75.6332   28.0108  -70.1056 C.ar      11 UNK        -0.1021 
     13 C13       -75.8497   29.3897  -70.1979 C.ar      11 UNK        -0.0753 
     14 C14       -77.1152   29.8485  -70.5853 C.ar      11 UNK        -0.0933 
     15 C15       -74.6770   30.3275  -69.8998 C.3       11 UNK         0.0166 
     16 S16       -74.8736   32.0802  -70.3869 S.3       11 UNK        -0.2615 
     17 C17       -75.1586   32.0031  -72.1961 C.3       11 UNK        -0.0865 
     18 CA        -73.8947   32.1731  -73.0825 C.3       10 UNK         0.0862 
     19 C         -73.1422   33.5214  -72.8911 C.2       10 UNK         0.5551 
     20 N         -71.8145   33.5509  -72.9316 N.am      10 UNK        -0.7319 
     21 O         -73.7695   34.5661  -72.7336 O.2       10 UNK        -0.5018 
     22 N         -73.0274   30.9849  -73.0543 N.am      10 UNK        -0.4509 
     23 C         -73.2520   29.8720  -73.7599 C.2       10 UNK         0.4899 
     24 O         -74.2402   29.6939  -74.4782 O.2       10 UNK        -0.4839 
     25 CA        -72.1968   28.7664  -73.6387 C.3       9 UNK         0.0222 
     26 CB        -72.4178   27.9306  -72.3668 C.3       9 UNK        -0.1966 
     27 N         -72.3106   27.9025  -74.8099 N.am      9 UNK        -0.4218 
     28 C         -71.3051   27.4896  -75.5893 C.2       9 UNK         0.5020 
     29 O         -70.1176   27.7181  -75.3529 O.2       9 UNK        -0.5274 
     30 CA        -71.6732   26.6844  -76.8492 C.3       8 UNK         0.0270 
     31 CB        -71.2365   25.2172  -76.6990 C.3       8 UNK        -0.1976 
     32 N         -73.1069   26.7290  -77.1570 N.am      8 UNK        -0.4313 
     33 C         -73.7039   27.6863  -77.8839 C.2       8 UNK         0.5041 
     34 O         -73.0900   28.6371  -78.3715 O.2       8 UNK        -0.5577 
     35 CA        -75.2339   27.5945  -78.0891 C.3       7 UNK         0.0284 
     36 CB        -75.6786   28.0996  -79.4781 C.3       7 UNK        -0.1958 
     37 N         -75.8067   26.2730  -77.8064 N.am      7 UNK        -0.4454 
     38 C         -75.5398   25.1081  -78.4161 C.2       7 UNK         0.5089 
     39 O         -74.8195   25.0068  -79.4102 O.2       7 UNK        -0.5125 
     40 CA        -76.1493   23.8375  -77.7800 C.3       6 UNK         0.0408 
     41 CB        -75.3186   22.5769  -78.0966 C.3       6 UNK        -0.1791 
     42 N         -76.3849   23.9200  -76.3287 N.am      6 UNK        -0.4762 
     43 C         -75.4892   24.2495  -75.3830 C.2       6 UNK         0.5007 
     44 O         -74.3455   24.6234  -75.6444 O.2       6 UNK        -0.5032 
     45 CA        -75.9026   24.1382  -73.9026 C.3       5 UNK         0.0783 
     46 C46       -75.6575   25.4545  -73.1198 C.3       11 UNK        -0.0857 
     47 S47       -75.0117   25.0926  -71.4512 S.3       11 UNK        -0.2512 
     48 C48       -76.3868   25.6010  -70.3753 C.3       11 UNK         0.0225 
     49 N         -77.2773   23.6514  -73.7339 N.am      5 UNK        -0.4615 
     50 C         -77.5887   22.3662  -73.5261 C.2       4 UNK         0.5053 
     51 O         -76.7573   21.4612  -73.4457 O.2       4 UNK        -0.5105 
     52 CA        -79.0805   22.0179  -73.3937 C.3       4 UNK         0.0263 
     53 CB        -79.5875   22.3668  -71.9842 C.3       4 UNK        -0.1981 
     54 N         -79.9555   22.6397  -74.3933 N.am      4 UNK        -0.4224 
     55 C         -79.8188   22.5747  -75.7257 C.2       3 UNK         0.4895 
     56 O         -78.8593   22.0555  -76.2946 O.2       3 UNK        -0.5091 
     57 CA        -80.9469   23.1858  -76.5729 C.3       3 UNK         0.0250 
     58 CB        -82.3068   23.2563  -75.8479 C.3       3 UNK        -0.1996 
     59 N         -80.5649   24.5261  -77.0043 N.am      3 UNK        -0.4254 
     60 C         -79.9185   24.8258  -78.1384 C.2       2 UNK         0.5004 
     61 O         -79.6207   23.9973  -78.9987 O.2       2 UNK        -0.5226 
     62 CA        -79.5608   26.3058  -78.3716 C.3       2 UNK         0.0269 
     63 CB        -80.3065   26.8596  -79.5975 C.3       2 UNK        -0.1926 
     64 N         -79.8597   27.1559  -77.2145 N.am      2 UNK        -0.4687 
     65 C         -79.0508   27.3286  -76.1610 C.2       1 UNK         0.5165 
     66 O         -77.9395   26.8060  -76.0570 O.2       1 UNK        -0.5079 
     67 H67       -82.5334   26.2885  -73.0061 H         1 UNK         0.0900 
     68 H68       -81.6960   24.7528  -72.7847 H         1 UNK         0.0900 
     69 H69       -81.4186   26.0733  -71.6531 H         1 UNK         0.0900 
     70 H70       -81.5145   27.9188  -74.1628 H         1 UNK         0.2959 
     71 H71       -80.1683   29.0099  -75.5239 H         1 UNK         0.1079 
     72 H72       -77.7518   29.3073  -74.8048 H         1 UNK         0.0837 
     73 H73       -78.0088   28.1344  -73.5509 H         1 UNK         0.0837 
     74 H74       -80.1687   28.6650  -71.5897 H         1 UNK         0.0685 
     75 H75       -79.8492   30.2047  -70.8313 H         1 UNK         0.0685 
     76 H76       -78.6528   26.8777  -71.1592 H         1 UNK         0.1434 
     77 H77       -74.6644   27.6398  -69.7994 H         1 UNK         0.1329 
     78 H78       -77.3189   30.9067  -70.6602 H         1 UNK         0.1335 
     79 H79       -73.7814   29.9454  -70.3892 H         1 UNK         0.0680 
     80 H80       -74.4775   30.2953  -68.8281 H         1 UNK         0.0680 
     81 H81       -75.8791   32.7848  -72.4428 H         1 UNK         0.1032 
     82 H82       -75.6584   31.0715  -72.4607 H         1 UNK         0.1032 
     83 H83       -74.2596   32.2571  -74.1082 H         1 UNK         0.0461 
     84 H84       -71.3450   34.4353  -72.8138 H         1 UNK         0.3453 
     85 H85       -71.2758   32.7247  -73.1319 H         1 UNK         0.3453 
     86 H86       -72.2145   31.0482  -72.4587 H         1 UNK         0.2984 
     87 H87       -71.2085   29.2296  -73.6040 H         1 UNK         0.0554 
     88 H88       -71.7636   27.0589  -72.3432 H         1 UNK         0.0847 
     89 H89       -73.4467   27.5782  -72.2895 H         1 UNK         0.0847 
     90 H90       -72.2052   28.5156  -71.4723 H         1 UNK         0.0847 
     91 H91       -73.2577   27.7457  -75.1272 H         1 UNK         0.3141 
     92 H92       -71.1172   27.1143  -77.6850 H         1 UNK         0.0743 
     93 H93       -70.1559   25.1440  -76.5691 H         1 UNK         0.0784 
     94 H94       -71.4976   24.6320  -77.5810 H         1 UNK         0.0784 
     95 H95       -71.6992   24.7435  -75.8325 H         1 UNK         0.0784 
     96 H96       -73.6709   25.9766  -76.7647 H         1 UNK         0.3213 
     97 H97       -75.6673   28.2649  -77.3450 H         1 UNK         0.0855 
     98 H98       -75.2338   27.5146  -80.2834 H         1 UNK         0.0814 
     99 H99       -75.3820   29.1379  -79.6309 H         1 UNK         0.0814 
    100 H100      -76.7620   28.0561  -79.5885 H         1 UNK         0.0814 
    101 H101      -76.4499   26.2523  -77.0155 H         1 UNK         0.3105 
    102 H102      -77.1269   23.7060  -78.2403 H         1 UNK         0.0547 
    103 H103      -75.7750   21.6850  -77.6670 H         1 UNK         0.0837 
    104 H104      -74.3028   22.6561  -77.7075 H         1 UNK         0.0837 
    105 H105      -75.2447   22.4126  -79.1722 H         1 UNK         0.0837 
    106 H106      -77.2944   23.5971  -76.0205 H         1 UNK         0.3020 
    107 H107      -75.2092   23.3884  -73.5145 H         1 UNK         0.1245 
    108 H108      -76.5648   26.0587  -73.0697 H         1 UNK         0.0781 
    109 H109      -74.9135   26.0913  -73.6016 H         1 UNK         0.0781 
    110 H110      -77.2783   25.0349  -70.6516 H         1 UNK         0.0836 
    111 H111      -76.1522   25.3263  -69.3461 H         1 UNK         0.0836 
    112 H112      -78.0196   24.3488  -73.7659 H         1 UNK         0.3022 
    113 H113      -79.1711   20.9378  -73.5262 H         1 UNK         0.0747 
    114 H114      -80.6111   22.0241  -71.8316 H         1 UNK         0.0793 
    115 H115      -78.9718   21.8911  -71.2195 H         1 UNK         0.0793 
    116 H116      -79.5604   23.4416  -71.7996 H         1 UNK         0.0793 
    117 H117      -80.7713   23.1076  -74.0310 H         1 UNK         0.3047 
    118 H118      -81.0741   22.5402  -77.4450 H         1 UNK         0.0822 
    119 H119      -83.0959   23.5546  -76.5386 H         1 UNK         0.0807 
    120 H120      -82.3087   23.9731  -75.0275 H         1 UNK         0.0807 
    121 H121      -82.5913   22.2829  -75.4452 H         1 UNK         0.0807 
    122 H122      -80.7351   25.2788  -76.3544 H         1 UNK         0.2946 
    123 H123      -78.4906   26.3478  -78.5814 H         1 UNK         0.1144 
    124 H124      -80.0203   27.8913  -79.8029 H         1 UNK         0.0793 
    125 H125      -81.3882   26.8305  -79.4606 H         1 UNK         0.0793 
    126 H126      -80.0757   26.2790  -80.4919 H         1 UNK         0.0793 
    127 H127      -80.7621   27.6111  -77.2152 H         1 UNK         0.2896 
@<TRIPOS>BOND
     1    1    2 1    
     2    1   67 1    
     3    1   68 1    
     4    1   69 1    
     5    2    3 2    
     6    2    4 am   BACKBONE|DICT|INTERRES
     7    4    5 1    
     8    4   70 1    
     9    5    6 1    
    10    5   65 1    
    11    5   71 1    
    12    6    7 1    
    13    6   72 1    
    14    6   73 1    
    15    7    8 1    
    16    8    9 1    
    17    8   74 1    
    18    8   75 1    
    19    9   10 ar   
    20    9   14 ar   
    21   10   11 ar   
    22   10   76 1    
    23   11   12 ar   
    24   11   48 1    
    25   12   13 ar   
    26   12   77 1    
    27   13   14 ar   
    28   13   15 1    
    29   14   78 1    
    30   15   16 1    
    31   15   79 1    
    32   15   80 1    
    33   16   17 1    
    34   17   18 1    
    35   17   81 1    
    36   17   82 1    
    37   18   19 1    
    38   18   22 1    
    39   18   83 1    
    40   19   20 am   BACKBONE|DICT|INTERRES
    41   19   21 2    
    42   20   84 1    
    43   20   85 1    
    44   22   23 am   BACKBONE|DICT|INTERRES
    45   22   86 1    
    46   23   24 2    
    47   23   25 1    
    48   25   26 1    
    49   25   27 1    
    50   25   87 1    
    51   26   88 1    
    52   26   89 1    
    53   26   90 1    
    54   27   28 am   BACKBONE|DICT|INTERRES
    55   27   91 1    
    56   28   29 2    
    57   28   30 1    
    58   30   31 1    
    59   30   32 1    
    60   30   92 1    
    61   31   93 1    
    62   31   94 1    
    63   31   95 1    
    64   32   33 am   BACKBONE|DICT|INTERRES
    65   32   96 1    
    66   33   34 2    
    67   33   35 1    
    68   35   36 1    
    69   35   37 1    
    70   35   97 1    
    71   36   98 1    
    72   36   99 1    
    73   36  100 1    
    74   37   38 am   BACKBONE|DICT|INTERRES
    75   37  101 1    
    76   38   39 2    
    77   38   40 1    
    78   40   41 1    
    79   40   42 1    
    80   40  102 1    
    81   41  103 1    
    82   41  104 1    
    83   41  105 1    
    84   42   43 am   BACKBONE|DICT|INTERRES
    85   42  106 1    
    86   43   44 2    
    87   43   45 1    
    88   45   46 1    
    89   45   49 1    
    90   45  107 1    
    91   46   47 1    
    92   46  108 1    
    93   46  109 1    
    94   47   48 1    
    95   48  110 1    
    96   48  111 1    
    97   49   50 am   BACKBONE|DICT|INTERRES
    98   49  112 1    
    99   50   51 2    
   100   50   52 1    
   101   52   53 1    
   102   52   54 1    
   103   52  113 1    
   104   53  114 1    
   105   53  115 1    
   106   53  116 1    
   107   54   55 am   BACKBONE|DICT|INTERRES
   108   54  117 1    
   109   55   56 2    
   110   55   57 1    
   111   57   58 1    
   112   57   59 1    
   113   57  118 1    
   114   58  119 1    
   115   58  120 1    
   116   58  121 1    
   117   59   60 am   BACKBONE|DICT|INTERRES
   118   59  122 1    
   119   60   61 2    
   120   60   62 1    
   121   62   63 1    
   122   62   64 1    
   123   62  123 1    
   124   63  124 1    
   125   63  125 1    
   126   63  126 1    
   127   64   65 am   BACKBONE|DICT|INTERRES
   128   64  127 1    
   129   65   66 2    
@<TRIPOS>SUBSTRUCTURE
     1 UNK         1 GROUP             0       ****    0 ROOT    
