@<TRIPOS>MOLECULE
3R135
127   129    1
SMALL
USER_CHARGES


@<TRIPOS>ATOM
      1 CA        -84.6219   30.3196  -77.3190 C.3       0 UNK        -0.1998 
      2 C         -83.8973   29.2136  -76.5663 C.2       0 UNK         0.4909 
      3 O         -84.4929   28.1702  -76.2973 O.2       0 UNK        -0.5240 
      4 N         -82.6213   29.4412  -76.2235 N.am      1 UNK        -0.4739 
      5 CA        -81.7168   28.5092  -75.5421 C.3       1 UNK         0.0864 
      6 C6        -82.2008   28.1210  -74.1148 C.3       11 UNK        -0.0881 
      7 S7        -80.8599   27.3977  -73.1142 S.3       11 UNK        -0.2682 
      8 C8        -80.3587   28.8310  -72.1022 C.3       11 UNK         0.0289 
      9 C9        -78.9594   28.6889  -71.5082 C.ar      11 UNK        -0.0687 
     10 C10       -78.5622   27.5105  -70.8671 C.ar      11 UNK        -0.0823 
     11 C11       -77.2827   27.3953  -70.3149 C.ar      11 UNK        -0.0830 
     12 C12       -76.4025   28.4777  -70.3812 C.ar      11 UNK        -0.1021 
     13 C13       -76.7876   29.6647  -71.0095 C.ar      11 UNK        -0.0753 
     14 C14       -78.0624   29.7609  -71.5773 C.ar      11 UNK        -0.0933 
     15 C15       -75.8408   30.8554  -71.0475 C.3       11 UNK         0.0166 
     16 S16       -74.6896   30.7632  -72.4519 S.3       11 UNK        -0.2615 
     17 C17       -73.4318   29.5955  -71.8237 C.3       11 UNK        -0.0865 
     18 CA        -72.0886   29.7155  -72.5884 C.3       10 UNK         0.0862 
     19 C         -71.0154   28.7780  -71.9809 C.2       10 UNK         0.5551 
     20 N         -70.0980   29.3166  -71.1896 N.am      10 UNK        -0.7319 
     21 O         -71.0312   27.5654  -72.1816 O.2       10 UNK        -0.5018 
     22 N         -72.2684   29.4371  -74.0168 N.am      10 UNK        -0.4509 
     23 C         -71.6682   30.1018  -75.0093 C.2       10 UNK         0.4899 
     24 O         -70.8436   31.0009  -74.8324 O.2       10 UNK        -0.4839 
     25 CA        -72.0951   29.7199  -76.4384 C.3       9 UNK         0.0222 
     26 CB        -71.2339   30.3827  -77.5359 C.3       9 UNK        -0.1966 
     27 N         -72.1966   28.2712  -76.6378 N.am      9 UNK        -0.4218 
     28 C         -71.2023   27.3698  -76.6124 C.2       9 UNK         0.5020 
     29 O         -70.0207   27.6633  -76.4230 O.2       9 UNK        -0.5274 
     30 CA        -71.5631   25.8853  -76.8358 C.3       8 UNK         0.0270 
     31 CB        -71.1245   25.0357  -75.6301 C.3       8 UNK        -0.1976 
     32 N         -72.9862   25.6442  -77.0933 N.am      8 UNK        -0.4313 
     33 C         -73.6290   25.9035  -78.2401 C.2       8 UNK         0.5041 
     34 O         -73.0708   26.3068  -79.2607 O.2       8 UNK        -0.5577 
     35 CA        -75.1613   25.7392  -78.2294 C.3       7 UNK         0.0284 
     36 CB        -75.5598   24.2947  -78.5684 C.3       7 UNK        -0.1958 
     37 N         -75.7754   26.1387  -76.9569 N.am      7 UNK        -0.4454 
     38 C         -75.7280   27.3777  -76.4448 C.2       7 UNK         0.5089 
     39 O         -75.1927   28.3304  -77.0108 O.2       7 UNK        -0.5125 
     40 CA        -76.3181   27.5776  -75.0401 C.3       6 UNK         0.0408 
     41 CB        -77.8382   27.7620  -75.1022 C.3       6 UNK        -0.1791 
     42 N         -75.9745   26.4793  -74.1334 N.am      6 UNK        -0.4762 
     43 C         -74.7314   26.2542  -73.6859 C.2       6 UNK         0.5007 
     44 O         -73.7763   26.9784  -73.9643 O.2       6 UNK        -0.5032 
     45 CA        -74.4907   24.9791  -72.8521 C.3       5 UNK         0.0783 
     46 C46       -74.7783   25.1816  -71.3378 C.3       11 UNK        -0.0857 
     47 S47       -76.4954   24.7971  -70.8324 S.3       11 UNK        -0.2512 
     48 C48       -76.8664   26.1061  -69.6272 C.3       11 UNK         0.0225 
     49 N         -75.1869   23.8139  -73.4049 N.am      5 UNK        -0.4615 
     50 C         -74.9540   23.2631  -74.6013 C.2       4 UNK         0.5053 
     51 O         -74.0589   23.6302  -75.3586 O.2       4 UNK        -0.5105 
     52 CA        -75.9136   22.1459  -75.0465 C.3       4 UNK         0.0263 
     53 CB        -75.4248   20.7819  -74.5346 C.3       4 UNK        -0.1981 
     54 N         -77.3018   22.3634  -74.6218 N.am      4 UNK        -0.4224 
     55 C         -78.0514   23.4180  -74.9726 C.2       3 UNK         0.4895 
     56 O         -77.6465   24.3386  -75.6862 O.2       3 UNK        -0.5091 
     57 CA        -79.4624   23.4773  -74.3640 C.3       3 UNK         0.0250 
     58 CB        -79.3995   24.0453  -72.9373 C.3       3 UNK        -0.1996 
     59 N         -80.3850   24.2939  -75.1557 N.am      3 UNK        -0.4254 
     60 C         -80.8473   23.9711  -76.3725 C.2       2 UNK         0.5004 
     61 O         -80.5502   22.9281  -76.9577 O.2       2 UNK        -0.5226 
     62 CA        -81.8373   24.9428  -77.0425 C.3       2 UNK         0.0269 
     63 CB        -83.2042   24.2658  -77.2459 C.3       2 UNK        -0.1926 
     64 N         -82.0422   26.1748  -76.2747 N.am      2 UNK        -0.4687 
     65 C         -81.3713   27.3180  -76.4642 C.2       1 UNK         0.5165 
     66 O         -80.5102   27.4653  -77.3326 O.2       1 UNK        -0.5079 
     67 H67       -84.9564   29.9550  -78.2898 H         1 UNK         0.0900 
     68 H68       -83.9842   31.1878  -77.4840 H         1 UNK         0.0900 
     69 H69       -85.4971   30.6441  -76.7568 H         1 UNK         0.0900 
     70 H70       -82.1951   30.3145  -76.5030 H         1 UNK         0.2959 
     71 H71       -80.7845   29.0641  -75.4211 H         1 UNK         0.1079 
     72 H72       -82.5787   29.0062  -73.6008 H         1 UNK         0.0837 
     73 H73       -83.0428   27.4282  -74.1395 H         1 UNK         0.0837 
     74 H74       -81.0784   28.9673  -71.2942 H         1 UNK         0.0685 
     75 H75       -80.4088   29.7288  -72.7204 H         1 UNK         0.0685 
     76 H76       -79.2477   26.6764  -70.8030 H         1 UNK         0.1434 
     77 H77       -75.4199   28.4002  -69.9373 H         1 UNK         0.1329 
     78 H78       -78.3600   30.6806  -72.0622 H         1 UNK         0.1335 
     79 H79       -76.4133   31.7804  -71.1312 H         1 UNK         0.0680 
     80 H80       -75.2862   30.9310  -70.1110 H         1 UNK         0.0680 
     81 H81       -73.2722   29.7914  -70.7619 H         1 UNK         0.1032 
     82 H82       -73.8294   28.5826  -71.8912 H         1 UNK         0.1032 
     83 H83       -71.7453   30.7456  -72.4696 H         1 UNK         0.0461 
     84 H84       -70.0797   30.3089  -71.0118 H         1 UNK         0.3453 
     85 H85       -69.4008   28.7202  -70.7720 H         1 UNK         0.3453 
     86 H86       -72.8658   28.6415  -74.2260 H         1 UNK         0.2984 
     87 H87       -73.1094   30.1041  -76.5541 H         1 UNK         0.0554 
     88 H88       -71.5776   30.1043  -78.5321 H         1 UNK         0.0847 
     89 H89       -70.1827   30.1056  -77.4531 H         1 UNK         0.0847 
     90 H90       -71.2867   31.4699  -77.4682 H         1 UNK         0.0847 
     91 H91       -73.1405   27.9323  -76.7875 H         1 UNK         0.3141 
     92 H92       -70.9998   25.5490  -77.7086 H         1 UNK         0.0743 
     93 H93       -70.0540   25.1347  -75.4463 H         1 UNK         0.0784 
     94 H94       -71.6398   25.3391  -74.7181 H         1 UNK         0.0784 
     95 H95       -71.3261   23.9771  -75.7945 H         1 UNK         0.0784 
     96 H96       -73.5131   25.2187  -76.3347 H         1 UNK         0.3213 
     97 H97       -75.5673   26.3934  -79.0039 H         1 UNK         0.0855 
     98 H98       -75.1966   24.0146  -79.5580 H         1 UNK         0.0814 
     99 H99       -76.6429   24.1694  -78.5711 H         1 UNK         0.0814 
    100 H100      -75.1411   23.5835  -77.8572 H         1 UNK         0.0814 
    101 H101      -76.2895   25.4260  -76.4425 H         1 UNK         0.3105 
    102 H102      -75.8919   28.4964  -74.6301 H         1 UNK         0.0547 
    103 H103      -78.2282   28.0367  -74.1253 H         1 UNK         0.0837 
    104 H104      -78.1079   28.5609  -75.7938 H         1 UNK         0.0837 
    105 H105      -78.3511   26.8585  -75.4314 H         1 UNK         0.0837 
    106 H106      -76.7033   25.8164  -73.9122 H         1 UNK         0.3020 
    107 H107      -73.4213   24.7745  -72.9460 H         1 UNK         0.1245 
    108 H108      -74.5063   26.1888  -71.0165 H         1 UNK         0.0781 
    109 H109      -74.1307   24.5158  -70.7655 H         1 UNK         0.0781 
    110 H110      -76.0066   26.2640  -68.9742 H         1 UNK         0.0836 
    111 H111      -77.6780   25.7672  -68.9816 H         1 UNK         0.0836 
    112 H112      -75.9453   23.4563  -72.8422 H         1 UNK         0.3022 
    113 H113      -75.9062   22.1213  -76.1376 H         1 UNK         0.0747 
    114 H114      -76.0401   19.9689  -74.9205 H         1 UNK         0.0793 
    115 H115      -74.4000   20.5901  -74.8563 H         1 UNK         0.0793 
    116 H116      -75.4397   20.7282  -73.4453 H         1 UNK         0.0793 
    117 H117      -77.7058   21.6576  -74.0225 H         1 UNK         0.3047 
    118 H118      -79.8660   22.4634  -74.3225 H         1 UNK         0.0822 
    119 H119      -78.8120   23.4003  -72.2832 H         1 UNK         0.0807 
    120 H120      -80.3925   24.1281  -72.4951 H         1 UNK         0.0807 
    121 H121      -78.9408   25.0350  -72.9168 H         1 UNK         0.0807 
    122 H122      -80.6594   25.1819  -74.7614 H         1 UNK         0.2946 
    123 H123      -81.4286   25.1852  -78.0264 H         1 UNK         0.1144 
    124 H124      -83.1109   23.3679  -77.8584 H         1 UNK         0.0793 
    125 H125      -83.9031   24.9306  -77.7542 H         1 UNK         0.0793 
    126 H126      -83.6531   23.9686  -76.2973 H         1 UNK         0.0793 
    127 H127      -82.7678   26.1560  -75.5719 H         1 UNK         0.2896 
@<TRIPOS>BOND
     1    1    2 1    
     2    1   67 1    
     3    1   68 1    
     4    1   69 1    
     5    2    3 2    
     6    2    4 am   BACKBONE|DICT|INTERRES
     7    4    5 1    
     8    4   70 1    
     9    5    6 1    
    10    5   65 1    
    11    5   71 1    
    12    6    7 1    
    13    6   72 1    
    14    6   73 1    
    15    7    8 1    
    16    8    9 1    
    17    8   74 1    
    18    8   75 1    
    19    9   10 ar   
    20    9   14 ar   
    21   10   11 ar   
    22   10   76 1    
    23   11   12 ar   
    24   11   48 1    
    25   12   13 ar   
    26   12   77 1    
    27   13   14 ar   
    28   13   15 1    
    29   14   78 1    
    30   15   16 1    
    31   15   79 1    
    32   15   80 1    
    33   16   17 1    
    34   17   18 1    
    35   17   81 1    
    36   17   82 1    
    37   18   19 1    
    38   18   22 1    
    39   18   83 1    
    40   19   20 am   BACKBONE|DICT|INTERRES
    41   19   21 2    
    42   20   84 1    
    43   20   85 1    
    44   22   23 am   BACKBONE|DICT|INTERRES
    45   22   86 1    
    46   23   24 2    
    47   23   25 1    
    48   25   26 1    
    49   25   27 1    
    50   25   87 1    
    51   26   88 1    
    52   26   89 1    
    53   26   90 1    
    54   27   28 am   BACKBONE|DICT|INTERRES
    55   27   91 1    
    56   28   29 2    
    57   28   30 1    
    58   30   31 1    
    59   30   32 1    
    60   30   92 1    
    61   31   93 1    
    62   31   94 1    
    63   31   95 1    
    64   32   33 am   BACKBONE|DICT|INTERRES
    65   32   96 1    
    66   33   34 2    
    67   33   35 1    
    68   35   36 1    
    69   35   37 1    
    70   35   97 1    
    71   36   98 1    
    72   36   99 1    
    73   36  100 1    
    74   37   38 am   BACKBONE|DICT|INTERRES
    75   37  101 1    
    76   38   39 2    
    77   38   40 1    
    78   40   41 1    
    79   40   42 1    
    80   40  102 1    
    81   41  103 1    
    82   41  104 1    
    83   41  105 1    
    84   42   43 am   BACKBONE|DICT|INTERRES
    85   42  106 1    
    86   43   44 2    
    87   43   45 1    
    88   45   46 1    
    89   45   49 1    
    90   45  107 1    
    91   46   47 1    
    92   46  108 1    
    93   46  109 1    
    94   47   48 1    
    95   48  110 1    
    96   48  111 1    
    97   49   50 am   BACKBONE|DICT|INTERRES
    98   49  112 1    
    99   50   51 2    
   100   50   52 1    
   101   52   53 1    
   102   52   54 1    
   103   52  113 1    
   104   53  114 1    
   105   53  115 1    
   106   53  116 1    
   107   54   55 am   BACKBONE|DICT|INTERRES
   108   54  117 1    
   109   55   56 2    
   110   55   57 1    
   111   57   58 1    
   112   57   59 1    
   113   57  118 1    
   114   58  119 1    
   115   58  120 1    
   116   58  121 1    
   117   59   60 am   BACKBONE|DICT|INTERRES
   118   59  122 1    
   119   60   61 2    
   120   60   62 1    
   121   62   63 1    
   122   62   64 1    
   123   62  123 1    
   124   63  124 1    
   125   63  125 1    
   126   63  126 1    
   127   64   65 am   BACKBONE|DICT|INTERRES
   128   64  127 1    
   129   65   66 2    
@<TRIPOS>SUBSTRUCTURE
     1 UNK         1 GROUP             0       ****    0 ROOT    
