@<TRIPOS>MOLECULE
3R135
127   129    1
SMALL
USER_CHARGES


@<TRIPOS>ATOM
      1 CA        -83.7960   24.7222  -73.4113 C.3       0 UNK        -0.1998 
      2 C         -82.3159   24.8220  -73.7450 C.2       0 UNK         0.4909 
      3 O         -81.9644   25.1016  -74.8904 O.2       0 UNK        -0.5240 
      4 N         -81.4432   24.5962  -72.7560 N.am      1 UNK        -0.4739 
      5 CA        -79.9823   24.6349  -72.8905 C.3       1 UNK         0.0864 
      6 C6        -79.2673   24.5826  -71.5151 C.3       11 UNK        -0.0881 
      7 S7        -79.9301   25.7986  -70.3247 S.3       11 UNK        -0.2682 
      8 C8        -78.4211   26.4410  -69.5335 C.3       11 UNK         0.0289 
      9 C9        -77.7633   27.5777  -70.3081 C.ar      11 UNK        -0.0687 
     10 C10       -78.5103   28.6895  -70.7147 C.ar      11 UNK        -0.0823 
     11 C11       -77.8903   29.7744  -71.3409 C.ar      11 UNK        -0.0830 
     12 C12       -76.5074   29.7505  -71.5436 C.ar      11 UNK        -0.1021 
     13 C13       -75.7504   28.6423  -71.1547 C.ar      11 UNK        -0.0753 
     14 C14       -76.3852   27.5555  -70.5451 C.ar      11 UNK        -0.0933 
     15 C15       -74.2427   28.6348  -71.3573 C.3       11 UNK         0.0166 
     16 S16       -73.8075   28.4775  -73.1143 S.3       11 UNK        -0.2615 
     17 C17       -73.2712   30.1763  -73.5246 C.3       11 UNK        -0.0865 
     18 CA        -72.6218   30.2697  -74.9301 C.3       10 UNK         0.0862 
     19 C         -72.1937   31.7216  -75.2618 C.2       10 UNK         0.5551 
     20 N         -73.1066   32.5213  -75.7956 N.am      10 UNK        -0.7319 
     21 O         -71.0663   32.1387  -75.0028 O.2       10 UNK        -0.5018 
     22 N         -71.5341   29.2996  -75.0780 N.am      10 UNK        -0.4509 
     23 C         -71.0278   28.8506  -76.2287 C.2       10 UNK         0.4899 
     24 O         -71.3598   29.2720  -77.3365 O.2       10 UNK        -0.4839 
     25 CA        -70.0268   27.6819  -76.1383 C.3       9 UNK         0.0222 
     26 CB        -68.5790   28.1922  -75.9998 C.3       9 UNK        -0.1966 
     27 N         -70.3671   26.6832  -75.1077 N.am      9 UNK        -0.4218 
     28 C         -70.3359   26.8084  -73.7715 C.2       9 UNK         0.5020 
     29 O         -69.9538   27.8216  -73.1838 O.2       9 UNK        -0.5274 
     30 CA        -70.9314   25.6406  -72.9770 C.3       8 UNK         0.0270 
     31 CB        -70.8442   25.8356  -71.4506 C.3       8 UNK        -0.1976 
     32 N         -72.3313   25.4953  -73.3691 N.am      8 UNK        -0.4313 
     33 C         -72.9546   24.3371  -73.6046 C.2       8 UNK         0.5041 
     34 O         -72.4209   23.2342  -73.4771 O.2       8 UNK        -0.5577 
     35 CA        -74.4201   24.4098  -74.0690 C.3       7 UNK         0.0284 
     36 CB        -75.3778   24.2097  -72.8834 C.3       7 UNK        -0.1958 
     37 N         -74.7821   25.6467  -74.7700 N.am      7 UNK        -0.4454 
     38 C         -74.3366   26.0062  -75.9829 C.2       7 UNK         0.5089 
     39 O         -73.5023   25.3584  -76.6156 O.2       7 UNK        -0.5125 
     40 CA        -74.9238   27.2907  -76.5979 C.3       6 UNK         0.0408 
     41 CB        -75.2045   27.1336  -78.1040 C.3       6 UNK        -0.1791 
     42 N         -76.1515   27.7195  -75.9208 N.am      6 UNK        -0.4762 
     43 C         -76.5229   28.9877  -75.7002 C.2       6 UNK         0.5007 
     44 O         -75.8633   29.9684  -76.0475 O.2       6 UNK        -0.5032 
     45 CA        -77.9024   29.1852  -75.0356 C.3       5 UNK         0.0783 
     46 C46       -78.1022   30.6283  -74.5068 C.3       11 UNK        -0.0857 
     47 S47       -79.5294   30.7310  -73.3759 S.3       11 UNK        -0.2512 
     48 C48       -78.7104   30.9849  -71.7672 C.3       11 UNK         0.0225 
     49 N         -78.9494   28.8215  -75.9955 N.am      5 UNK        -0.4615 
     50 C         -79.3013   27.5719  -76.3098 C.2       4 UNK         0.5053 
     51 O         -78.8695   26.5729  -75.7215 O.2       4 UNK        -0.5105 
     52 CA        -80.2147   27.4149  -77.5333 C.3       4 UNK         0.0263 
     53 CB        -79.3626   27.5909  -78.8108 C.3       4 UNK        -0.1981 
     54 N         -80.8064   26.0834  -77.4567 N.am      4 UNK        -0.4224 
     55 C         -81.4664   25.3734  -78.3791 C.2       3 UNK         0.4895 
     56 O         -81.8266   25.8129  -79.4724 O.2       3 UNK        -0.5091 
     57 CA        -81.7630   23.9063  -77.9972 C.3       3 UNK         0.0250 
     58 CB        -81.9528   22.9868  -79.2226 C.3       3 UNK        -0.1996 
     59 N         -80.7653   23.3605  -77.0614 N.am      3 UNK        -0.4254 
     60 C         -79.4508   23.1836  -77.2777 C.2       2 UNK         0.5004 
     61 O         -78.9072   23.3159  -78.3753 O.2       2 UNK        -0.5226 
     62 CA        -78.6045   22.8683  -76.0321 C.3       2 UNK         0.0269 
     63 CB        -77.0909   22.9352  -76.3017 C.3       2 UNK        -0.1926 
     64 N         -78.9421   23.8124  -74.9623 N.am      2 UNK        -0.4687 
     65 C         -79.5183   23.4793  -73.8022 C.2       1 UNK         0.5165 
     66 O         -79.7330   22.3156  -73.4554 O.2       1 UNK        -0.5079 
     67 H67       -83.9617   24.4760  -72.3626 H         1 UNK         0.0900 
     68 H68       -84.2658   23.9507  -74.0205 H         1 UNK         0.0900 
     69 H69       -84.2907   25.6703  -73.6201 H         1 UNK         0.0900 
     70 H70       -81.7828   24.3685  -71.8325 H         1 UNK         0.2959 
     71 H71       -79.7237   25.5847  -73.3641 H         1 UNK         0.1079 
     72 H72       -79.3644   23.5941  -71.0616 H         1 UNK         0.0837 
     73 H73       -78.1979   24.7549  -71.6462 H         1 UNK         0.0837 
     74 H74       -78.6878   26.8169  -68.5450 H         1 UNK         0.0685 
     75 H75       -77.7236   25.6185  -69.3668 H         1 UNK         0.0685 
     76 H76       -79.5756   28.7169  -70.5299 H         1 UNK         0.1434 
     77 H77       -76.0149   30.5964  -72.0013 H         1 UNK         0.1329 
     78 H78       -75.7992   26.7062  -70.2217 H         1 UNK         0.1335 
     79 H79       -73.7893   27.8027  -70.8165 H         1 UNK         0.0680 
     80 H80       -73.8101   29.5418  -70.9333 H         1 UNK         0.0680 
     81 H81       -72.5686   30.5184  -72.7621 H         1 UNK         0.1032 
     82 H82       -74.1390   30.8352  -73.4670 H         1 UNK         0.1032 
     83 H83       -73.3766   29.9933  -75.6631 H         1 UNK         0.0461 
     84 H84       -72.8634   33.4760  -76.0085 H         1 UNK         0.3453 
     85 H85       -74.0319   32.1772  -76.0064 H         1 UNK         0.3453 
     86 H86       -71.1425   28.9274  -74.2186 H         1 UNK         0.2984 
     87 H87       -70.0912   27.1468  -77.0872 H         1 UNK         0.0554 
     88 H88       -67.8671   27.3672  -75.9765 H         1 UNK         0.0847 
     89 H89       -68.4363   28.7854  -75.0962 H         1 UNK         0.0847 
     90 H90       -68.3115   28.8277  -76.8449 H         1 UNK         0.0847 
     91 H91       -70.7607   25.8253  -75.4723 H         1 UNK         0.3141 
     92 H92       -70.3626   24.7481  -73.2465 H         1 UNK         0.0743 
     93 H93       -71.2496   24.9747  -70.9189 H         1 UNK         0.0784 
     94 H94       -69.8086   25.9571  -71.1308 H         1 UNK         0.0784 
     95 H95       -71.3945   26.7193  -71.1250 H         1 UNK         0.0784 
     96 H96       -72.8471   26.3575  -73.5020 H         1 UNK         0.3213 
     97 H97       -74.5596   23.5828  -74.7668 H         1 UNK         0.0855 
     98 H98       -75.3144   25.0316  -72.1694 H         1 UNK         0.0814 
     99 H99       -75.1466   23.2898  -72.3444 H         1 UNK         0.0814 
    100 H100      -76.4106   24.1325  -73.2216 H         1 UNK         0.0814 
    101 H101      -75.4097   26.2755  -74.2905 H         1 UNK         0.3105 
    102 H102      -74.1555   28.0532  -76.4740 H         1 UNK         0.0547 
    103 H103      -74.2981   26.8674  -78.6492 H         1 UNK         0.0837 
    104 H104      -75.9438   26.3547  -78.2943 H         1 UNK         0.0837 
    105 H105      -75.5766   28.0623  -78.5367 H         1 UNK         0.0837 
    106 H106      -76.8224   26.9911  -75.6982 H         1 UNK         0.3020 
    107 H107      -77.9425   28.5054  -74.1801 H         1 UNK         0.1245 
    108 H108      -78.2591   31.3249  -75.3323 H         1 UNK         0.0781 
    109 H109      -77.2119   30.9865  -73.9890 H         1 UNK         0.0781 
    110 H110      -79.4725   31.1922  -71.0145 H         1 UNK         0.0836 
    111 H111      -78.0847   31.8777  -71.8141 H         1 UNK         0.0836 
    112 H112      -79.3316   29.5842  -76.5353 H         1 UNK         0.3022 
    113 H113      -81.0105   28.1605  -77.4944 H         1 UNK         0.0747 
    114 H114      -79.9769   27.6010  -79.7104 H         1 UNK         0.0793 
    115 H115      -78.8151   28.5343  -78.8000 H         1 UNK         0.0793 
    116 H116      -78.6282   26.7907  -78.9151 H         1 UNK         0.0793 
    117 H117      -80.6463   25.6329  -76.5613 H         1 UNK         0.3047 
    118 H118      -82.7077   23.9264  -77.4517 H         1 UNK         0.0822 
    119 H119      -82.7988   23.3143  -79.8279 H         1 UNK         0.0807 
    120 H120      -82.1507   21.9584  -78.9206 H         1 UNK         0.0807 
    121 H121      -81.0752   22.9848  -79.8695 H         1 UNK         0.0807 
    122 H122      -81.0893   23.2784  -76.1061 H         1 UNK         0.2946 
    123 H123      -78.8493   21.8431  -75.7449 H         1 UNK         0.1144 
    124 H124      -76.7704   23.9436  -76.5662 H         1 UNK         0.0793 
    125 H125      -76.8041   22.2722  -77.1190 H         1 UNK         0.0793 
    126 H126      -76.5319   22.6177  -75.4231 H         1 UNK         0.0793 
    127 H127      -78.8486   24.7993  -75.1976 H         1 UNK         0.2896 
@<TRIPOS>BOND
     1    1    2 1    
     2    1   67 1    
     3    1   68 1    
     4    1   69 1    
     5    2    3 2    
     6    2    4 am   BACKBONE|DICT|INTERRES
     7    4    5 1    
     8    4   70 1    
     9    5    6 1    
    10    5   65 1    
    11    5   71 1    
    12    6    7 1    
    13    6   72 1    
    14    6   73 1    
    15    7    8 1    
    16    8    9 1    
    17    8   74 1    
    18    8   75 1    
    19    9   10 ar   
    20    9   14 ar   
    21   10   11 ar   
    22   10   76 1    
    23   11   12 ar   
    24   11   48 1    
    25   12   13 ar   
    26   12   77 1    
    27   13   14 ar   
    28   13   15 1    
    29   14   78 1    
    30   15   16 1    
    31   15   79 1    
    32   15   80 1    
    33   16   17 1    
    34   17   18 1    
    35   17   81 1    
    36   17   82 1    
    37   18   19 1    
    38   18   22 1    
    39   18   83 1    
    40   19   20 am   BACKBONE|DICT|INTERRES
    41   19   21 2    
    42   20   84 1    
    43   20   85 1    
    44   22   23 am   BACKBONE|DICT|INTERRES
    45   22   86 1    
    46   23   24 2    
    47   23   25 1    
    48   25   26 1    
    49   25   27 1    
    50   25   87 1    
    51   26   88 1    
    52   26   89 1    
    53   26   90 1    
    54   27   28 am   BACKBONE|DICT|INTERRES
    55   27   91 1    
    56   28   29 2    
    57   28   30 1    
    58   30   31 1    
    59   30   32 1    
    60   30   92 1    
    61   31   93 1    
    62   31   94 1    
    63   31   95 1    
    64   32   33 am   BACKBONE|DICT|INTERRES
    65   32   96 1    
    66   33   34 2    
    67   33   35 1    
    68   35   36 1    
    69   35   37 1    
    70   35   97 1    
    71   36   98 1    
    72   36   99 1    
    73   36  100 1    
    74   37   38 am   BACKBONE|DICT|INTERRES
    75   37  101 1    
    76   38   39 2    
    77   38   40 1    
    78   40   41 1    
    79   40   42 1    
    80   40  102 1    
    81   41  103 1    
    82   41  104 1    
    83   41  105 1    
    84   42   43 am   BACKBONE|DICT|INTERRES
    85   42  106 1    
    86   43   44 2    
    87   43   45 1    
    88   45   46 1    
    89   45   49 1    
    90   45  107 1    
    91   46   47 1    
    92   46  108 1    
    93   46  109 1    
    94   47   48 1    
    95   48  110 1    
    96   48  111 1    
    97   49   50 am   BACKBONE|DICT|INTERRES
    98   49  112 1    
    99   50   51 2    
   100   50   52 1    
   101   52   53 1    
   102   52   54 1    
   103   52  113 1    
   104   53  114 1    
   105   53  115 1    
   106   53  116 1    
   107   54   55 am   BACKBONE|DICT|INTERRES
   108   54  117 1    
   109   55   56 2    
   110   55   57 1    
   111   57   58 1    
   112   57   59 1    
   113   57  118 1    
   114   58  119 1    
   115   58  120 1    
   116   58  121 1    
   117   59   60 am   BACKBONE|DICT|INTERRES
   118   59  122 1    
   119   60   61 2    
   120   60   62 1    
   121   62   63 1    
   122   62   64 1    
   123   62  123 1    
   124   63  124 1    
   125   63  125 1    
   126   63  126 1    
   127   64   65 am   BACKBONE|DICT|INTERRES
   128   64  127 1    
   129   65   66 2    
@<TRIPOS>SUBSTRUCTURE
     1 UNK         1 GROUP             0       ****    0 ROOT    
