@<TRIPOS>MOLECULE
3R135
127   129    1
SMALL
USER_CHARGES


@<TRIPOS>ATOM
      1 CA        -81.1202   22.0203  -68.4202 C.3       0 UNK        -0.1998 
      2 C         -81.1315   22.7279  -69.7671 C.2       0 UNK         0.4909 
      3 O         -82.0664   22.5436  -70.5478 O.2       0 UNK        -0.5240 
      4 N         -80.1058   23.5435  -70.0403 N.am      1 UNK        -0.4739 
      5 CA        -79.9268   24.2675  -71.3037 C.3       1 UNK         0.0864 
      6 C6        -78.8801   25.4005  -71.1732 C.3       11 UNK        -0.0881 
      7 S7        -79.4039   26.6954  -70.0033 S.3       11 UNK        -0.2682 
      8 C8        -80.0102   27.9794  -71.1543 C.3       11 UNK         0.0289 
      9 C9        -78.9455   28.8203  -71.8679 C.ar      11 UNK        -0.0687 
     10 C10       -79.3855   29.8235  -72.7376 C.ar      11 UNK        -0.0823 
     11 C11       -78.4775   30.6646  -73.3858 C.ar      11 UNK        -0.0830 
     12 C12       -77.1083   30.4986  -73.1616 C.ar      11 UNK        -0.1021 
     13 C13       -76.6439   29.4889  -72.3139 C.ar      11 UNK        -0.0753 
     14 C14       -77.5659   28.6545  -71.6719 C.ar      11 UNK        -0.0933 
     15 C15       -75.1513   29.3234  -72.0529 C.3       11 UNK         0.0166 
     16 S16       -74.2273   28.8864  -73.5603 S.3       11 UNK        -0.2615 
     17 C17       -73.3767   30.4621  -73.9336 C.3       11 UNK        -0.0865 
     18 CA        -72.3781   30.3608  -75.1190 C.3       10 UNK         0.0862 
     19 C         -71.7199   31.7384  -75.4215 C.2       10 UNK         0.5551 
     20 N         -70.3999   31.8712  -75.3745 N.am      10 UNK        -0.7319 
     21 O         -72.4216   32.7055  -75.7067 O.2       10 UNK        -0.5018 
     22 N         -71.4306   29.2533  -74.9281 N.am      10 UNK        -0.4509 
     23 C         -70.7851   28.5899  -75.8922 C.2       10 UNK         0.4899 
     24 O         -70.8393   28.8897  -77.0844 O.2       10 UNK        -0.4839 
     25 CA        -69.9775   27.3472  -75.4691 C.3       9 UNK         0.0222 
     26 CB        -68.5102   27.7095  -75.1665 C.3       9 UNK        -0.1966 
     27 N         -70.5934   26.5717  -74.3778 N.am      9 UNK        -0.4218 
     28 C         -70.7501   26.9099  -73.0881 C.2       9 UNK         0.5020 
     29 O         -70.3391   27.9636  -72.5995 O.2       9 UNK        -0.5274 
     30 CA        -71.6013   25.9531  -72.2441 C.3       8 UNK         0.0270 
     31 CB        -71.8242   26.4502  -70.8027 C.3       8 UNK        -0.1976 
     32 N         -72.8936   25.8027  -72.9068 N.am      8 UNK        -0.4313 
     33 C         -73.5000   24.6442  -73.1817 C.2       8 UNK         0.5041 
     34 O         -73.0715   23.5411  -72.8407 O.2       8 UNK        -0.5577 
     35 CA        -74.8044   24.7338  -73.9919 C.3       7 UNK         0.0284 
     36 CB        -75.9973   24.9211  -73.0428 C.3       7 UNK        -0.1958 
     37 N         -74.8202   25.8104  -74.9886 N.am      7 UNK        -0.4454 
     38 C         -73.9829   25.9387  -76.0300 C.2       7 UNK         0.5089 
     39 O         -73.0362   25.1797  -76.2401 O.2       7 UNK        -0.5125 
     40 CA        -74.2464   27.1078  -76.9970 C.3       6 UNK         0.0408 
     41 CB        -74.0133   26.7161  -78.4675 C.3       6 UNK        -0.1791 
     42 N         -75.5998   27.6412  -76.8363 N.am      6 UNK        -0.4762 
     43 C         -75.9624   28.9222  -76.9596 C.2       6 UNK         0.5007 
     44 O         -75.1931   29.8183  -77.3086 O.2       6 UNK        -0.5032 
     45 CA        -77.4463   29.2405  -76.6665 C.3       5 UNK         0.0783 
     46 C46       -77.7185   30.7661  -76.6220 C.3       11 UNK        -0.0857 
     47 S47       -79.3787   31.1462  -75.9702 S.3       11 UNK        -0.2512 
     48 C48       -78.9832   31.7689  -74.3042 C.3       11 UNK         0.0225 
     49 N         -78.3316   28.5639  -77.6234 N.am      5 UNK        -0.4615 
     50 C         -78.6150   27.2571  -77.6371 C.2       4 UNK         0.5053 
     51 O         -78.1666   26.4504  -76.8162 O.2       4 UNK        -0.5105 
     52 CA        -79.5086   26.7665  -78.7818 C.3       4 UNK         0.0263 
     53 CB        -78.7459   26.7611  -80.1197 C.3       4 UNK        -0.1981 
     54 N         -79.9573   25.4149  -78.4693 N.am      4 UNK        -0.4224 
     55 C         -81.1077   24.8546  -78.8583 C.2       3 UNK         0.4895 
     56 O         -81.9181   25.4093  -79.6021 O.2       3 UNK        -0.5091 
     57 CA        -81.4173   23.4331  -78.3427 C.3       3 UNK         0.0250 
     58 CB        -81.2610   22.4067  -79.4775 C.3       3 UNK        -0.1996 
     59 N         -80.6000   23.0053  -77.1993 N.am      3 UNK        -0.4254 
     60 C         -80.6653   23.5347  -75.9702 C.2       2 UNK         0.5004 
     61 O         -81.4400   24.4447  -75.6590 O.2       2 UNK        -0.5226 
     62 CA        -79.6945   22.9680  -74.9227 C.3       2 UNK         0.0269 
     63 CB        -78.2228   23.0778  -75.3758 C.3       2 UNK        -0.1926 
     64 N         -79.9010   23.7023  -73.6775 N.am      2 UNK        -0.4687 
     65 C         -79.5433   23.3104  -72.4518 C.2       1 UNK         0.5165 
     66 O         -78.9170   22.2731  -72.2180 O.2       1 UNK        -0.5079 
     67 H67       -82.0097   22.2852  -67.8493 H         1 UNK         0.0900 
     68 H68       -80.2454   22.2865  -67.8273 H         1 UNK         0.0900 
     69 H69       -81.1161   20.9403  -68.5644 H         1 UNK         0.0900 
     70 H70       -79.3614   23.6518  -69.3668 H         1 UNK         0.2959 
     71 H71       -80.8880   24.7184  -71.5627 H         1 UNK         0.1079 
     72 H72       -77.9237   25.0004  -70.8324 H         1 UNK         0.0837 
     73 H73       -78.6874   25.8664  -72.1414 H         1 UNK         0.0837 
     74 H74       -80.6556   27.5093  -71.8980 H         1 UNK         0.0685 
     75 H75       -80.6474   28.6554  -70.5823 H         1 UNK         0.0685 
     76 H76       -80.4459   29.9616  -72.9019 H         1 UNK         0.1434 
     77 H77       -76.4019   31.1567  -73.6461 H         1 UNK         0.1329 
     78 H78       -77.1968   27.8909  -71.0032 H         1 UNK         0.1335 
     79 H79       -74.9772   28.5405  -71.3131 H         1 UNK         0.0680 
     80 H80       -74.7580   30.2422  -71.6162 H         1 UNK         0.0680 
     81 H81       -72.8541   30.7951  -73.0348 H         1 UNK         0.1032 
     82 H82       -74.1336   31.2183  -74.1463 H         1 UNK         0.1032 
     83 H83       -72.9610   30.1247  -76.0089 H         1 UNK         0.0461 
     84 H84       -69.8194   31.0808  -75.1447 H         1 UNK         0.3453 
     85 H85       -69.9832   32.7668  -75.5743 H         1 UNK         0.3453 
     86 H86       -71.2641   28.9623  -73.9699 H         1 UNK         0.2984 
     87 H87       -69.9751   26.6759  -76.3295 H         1 UNK         0.0554 
     88 H88       -67.9260   26.8236  -74.9180 H         1 UNK         0.0847 
     89 H89       -68.4216   28.4130  -74.3384 H         1 UNK         0.0847 
     90 H90       -68.0400   28.1743  -76.0340 H         1 UNK         0.0847 
     91 H91       -71.0372   25.7126  -74.6781 H         1 UNK         0.3141 
     92 H92       -71.0702   24.9996  -72.2065 H         1 UNK         0.0743 
     93 H93       -72.3416   27.4104  -70.7826 H         1 UNK         0.0784 
     94 H94       -72.4176   25.7390  -70.2279 H         1 UNK         0.0784 
     95 H95       -70.8746   26.5772  -70.2813 H         1 UNK         0.0784 
     96 H96       -73.3215   26.6574  -73.2425 H         1 UNK         0.3213 
     97 H97       -74.9294   23.7900  -74.5268 H         1 UNK         0.0855 
     98 H98       -75.9064   25.8351  -72.4541 H         1 UNK         0.0814 
     99 H99       -76.0721   24.0862  -72.3445 H         1 UNK         0.0814 
    100 H100      -76.9375   24.9709  -73.5896 H         1 UNK         0.0814 
    101 H101      -75.5278   26.5203  -74.8699 H         1 UNK         0.3105 
    102 H102      -73.5286   27.8838  -76.7308 H         1 UNK         0.0547 
    103 H103      -72.9933   26.3626  -78.6238 H         1 UNK         0.0837 
    104 H104      -74.6899   25.9211  -78.7826 H         1 UNK         0.0837 
    105 H105      -74.1617   27.5672  -79.1321 H         1 UNK         0.0837 
    106 H106      -76.3393   26.9649  -76.6563 H         1 UNK         0.3020 
    107 H107      -77.6517   28.8416  -75.6697 H         1 UNK         0.1245 
    108 H108      -76.9743   31.2788  -76.0103 H         1 UNK         0.0781 
    109 H109      -77.6308   31.2005  -77.6195 H         1 UNK         0.0781 
    110 H110      -78.2537   32.5773  -74.3769 H         1 UNK         0.0836 
    111 H111      -79.8817   32.2152  -73.8751 H         1 UNK         0.0836 
    112 H112      -78.7274   29.1532  -78.3413 H         1 UNK         0.3022 
    113 H113      -80.3721   27.4320  -78.8484 H         1 UNK         0.0747 
    114 H114      -79.3775   26.4058  -80.9342 H         1 UNK         0.0793 
    115 H115      -78.4087   27.7628  -80.3886 H         1 UNK         0.0793 
    116 H116      -77.8645   26.1197  -80.0768 H         1 UNK         0.0793 
    117 H117      -79.3716   24.9309  -77.8008 H         1 UNK         0.3047 
    118 H118      -82.4619   23.4320  -78.0239 H         1 UNK         0.0822 
    119 H119      -81.5631   21.4094  -79.1568 H         1 UNK         0.0807 
    120 H120      -80.2309   22.3500  -79.8315 H         1 UNK         0.0807 
    121 H121      -81.8846   22.6708  -80.3329 H         1 UNK         0.0807 
    122 H122      -79.9404   22.2606  -77.3743 H         1 UNK         0.2946 
    123 H123      -79.9518   21.9187  -74.7607 H         1 UNK         0.1144 
    124 H124      -78.0360   22.4966  -76.2790 H         1 UNK         0.0793 
    125 H125      -77.5412   22.6982  -74.6146 H         1 UNK         0.0793 
    126 H126      -77.9434   24.1095  -75.5884 H         1 UNK         0.0793 
    127 H127      -80.4593   24.5394  -73.8016 H         1 UNK         0.2896 
@<TRIPOS>BOND
     1    1    2 1    
     2    1   67 1    
     3    1   68 1    
     4    1   69 1    
     5    2    3 2    
     6    2    4 am   BACKBONE|DICT|INTERRES
     7    4    5 1    
     8    4   70 1    
     9    5    6 1    
    10    5   65 1    
    11    5   71 1    
    12    6    7 1    
    13    6   72 1    
    14    6   73 1    
    15    7    8 1    
    16    8    9 1    
    17    8   74 1    
    18    8   75 1    
    19    9   10 ar   
    20    9   14 ar   
    21   10   11 ar   
    22   10   76 1    
    23   11   12 ar   
    24   11   48 1    
    25   12   13 ar   
    26   12   77 1    
    27   13   14 ar   
    28   13   15 1    
    29   14   78 1    
    30   15   16 1    
    31   15   79 1    
    32   15   80 1    
    33   16   17 1    
    34   17   18 1    
    35   17   81 1    
    36   17   82 1    
    37   18   19 1    
    38   18   22 1    
    39   18   83 1    
    40   19   20 am   BACKBONE|DICT|INTERRES
    41   19   21 2    
    42   20   84 1    
    43   20   85 1    
    44   22   23 am   BACKBONE|DICT|INTERRES
    45   22   86 1    
    46   23   24 2    
    47   23   25 1    
    48   25   26 1    
    49   25   27 1    
    50   25   87 1    
    51   26   88 1    
    52   26   89 1    
    53   26   90 1    
    54   27   28 am   BACKBONE|DICT|INTERRES
    55   27   91 1    
    56   28   29 2    
    57   28   30 1    
    58   30   31 1    
    59   30   32 1    
    60   30   92 1    
    61   31   93 1    
    62   31   94 1    
    63   31   95 1    
    64   32   33 am   BACKBONE|DICT|INTERRES
    65   32   96 1    
    66   33   34 2    
    67   33   35 1    
    68   35   36 1    
    69   35   37 1    
    70   35   97 1    
    71   36   98 1    
    72   36   99 1    
    73   36  100 1    
    74   37   38 am   BACKBONE|DICT|INTERRES
    75   37  101 1    
    76   38   39 2    
    77   38   40 1    
    78   40   41 1    
    79   40   42 1    
    80   40  102 1    
    81   41  103 1    
    82   41  104 1    
    83   41  105 1    
    84   42   43 am   BACKBONE|DICT|INTERRES
    85   42  106 1    
    86   43   44 2    
    87   43   45 1    
    88   45   46 1    
    89   45   49 1    
    90   45  107 1    
    91   46   47 1    
    92   46  108 1    
    93   46  109 1    
    94   47   48 1    
    95   48  110 1    
    96   48  111 1    
    97   49   50 am   BACKBONE|DICT|INTERRES
    98   49  112 1    
    99   50   51 2    
   100   50   52 1    
   101   52   53 1    
   102   52   54 1    
   103   52  113 1    
   104   53  114 1    
   105   53  115 1    
   106   53  116 1    
   107   54   55 am   BACKBONE|DICT|INTERRES
   108   54  117 1    
   109   55   56 2    
   110   55   57 1    
   111   57   58 1    
   112   57   59 1    
   113   57  118 1    
   114   58  119 1    
   115   58  120 1    
   116   58  121 1    
   117   59   60 am   BACKBONE|DICT|INTERRES
   118   59  122 1    
   119   60   61 2    
   120   60   62 1    
   121   62   63 1    
   122   62   64 1    
   123   62  123 1    
   124   63  124 1    
   125   63  125 1    
   126   63  126 1    
   127   64   65 am   BACKBONE|DICT|INTERRES
   128   64  127 1    
   129   65   66 2    
@<TRIPOS>SUBSTRUCTURE
     1 UNK         1 GROUP             0       ****    0 ROOT    
