@<TRIPOS>MOLECULE
3R135
127   129    1
SMALL
USER_CHARGES


@<TRIPOS>ATOM
      1 CA        -78.6620   30.6905  -75.6034 C.3       0 UNK        -0.1998 
      2 C         -78.9890   29.5746  -74.6238 C.2       0 UNK         0.4909 
      3 O         -78.1290   28.7469  -74.3333 O.2       0 UNK        -0.5240 
      4 N         -80.2233   29.5544  -74.1076 N.am      1 UNK        -0.4739 
      5 CA        -80.7303   28.4972  -73.2308 C.3       1 UNK         0.0864 
      6 C6        -81.8570   29.0351  -72.3129 C.3       11 UNK        -0.0881 
      7 S7        -82.0857   28.0293  -70.8082 S.3       11 UNK        -0.2682 
      8 C8        -81.0494   28.9225  -69.6014 C.3       11 UNK         0.0289 
      9 C9        -79.5684   28.7680  -69.9153 C.ar      11 UNK        -0.0687 
     10 C10       -78.9401   27.5384  -69.7019 C.ar      11 UNK        -0.0823 
     11 C11       -77.5980   27.3645  -70.0422 C.ar      11 UNK        -0.0830 
     12 C12       -76.8712   28.4444  -70.5506 C.ar      11 UNK        -0.1021 
     13 C13       -77.4904   29.6744  -70.8059 C.ar      11 UNK        -0.0753 
     14 C14       -78.8395   29.8293  -70.4652 C.ar      11 UNK        -0.0933 
     15 C15       -76.7745   30.8337  -71.5090 C.3       11 UNK         0.0166 
     16 S16       -75.0388   30.5170  -72.0090 S.3       11 UNK        -0.2615 
     17 C17       -74.9181   31.3893  -73.6111 C.3       11 UNK        -0.0865 
     18 CA        -74.8461   30.4157  -74.8293 C.3       10 UNK         0.0862 
     19 C         -74.9825   31.1528  -76.1987 C.2       10 UNK         0.5551 
     20 N         -74.5072   30.5895  -77.3025 N.am      10 UNK        -0.7319 
     21 O         -75.5458   32.2420  -76.2734 O.2       10 UNK        -0.5018 
     22 N         -73.7103   29.4750  -74.7462 N.am      10 UNK        -0.4509 
     23 C         -72.4169   29.8233  -74.8008 C.2       10 UNK         0.4899 
     24 O         -72.0296   30.9700  -75.0296 O.2       10 UNK        -0.4839 
     25 CA        -71.3564   28.7515  -74.5095 C.3       9 UNK         0.0222 
     26 CB        -70.9655   28.8018  -73.0185 C.3       9 UNK        -0.1966 
     27 N         -71.7371   27.3839  -74.8843 N.am      9 UNK        -0.4218 
     28 C         -70.8420   26.4080  -75.0999 C.2       9 UNK         0.5020 
     29 O         -69.6218   26.5836  -75.0922 O.2       9 UNK        -0.5274 
     30 CA        -71.3772   24.9855  -75.3296 C.3       8 UNK         0.0270 
     31 CB        -71.8520   24.3654  -74.0049 C.3       8 UNK        -0.1976 
     32 N         -72.4416   24.9117  -76.3307 N.am      8 UNK        -0.4313 
     33 C         -72.2621   25.1098  -77.6445 C.2       8 UNK         0.5041 
     34 O         -71.1735   25.3749  -78.1567 O.2       8 UNK        -0.5577 
     35 CA        -73.5017   24.9836  -78.5482 C.3       7 UNK         0.0284 
     36 CB        -73.7749   23.5110  -78.8942 C.3       7 UNK        -0.1958 
     37 N         -74.7018   25.5782  -77.9593 N.am      7 UNK        -0.4454 
     38 C         -74.8537   26.8862  -77.7078 C.2       7 UNK         0.5089 
     39 O         -74.0257   27.7505  -77.9972 O.2       7 UNK        -0.5125 
     40 CA        -76.1239   27.2909  -76.9470 C.3       6 UNK         0.0408 
     41 CB        -77.3419   27.3441  -77.8808 C.3       6 UNK        -0.1791 
     42 N         -76.4007   26.4075  -75.8163 N.am      6 UNK        -0.4762 
     43 C         -75.5865   26.2107  -74.7698 C.2       6 UNK         0.5007 
     44 O         -74.4954   26.7667  -74.6281 O.2       6 UNK        -0.5032 
     45 CA        -76.0582   25.1946  -73.7146 C.3       5 UNK         0.0783 
     46 C46       -77.0975   25.8588  -72.7888 C.3       11 UNK        -0.0857 
     47 S47       -77.4891   24.8841  -71.2952 S.3       11 UNK        -0.2512 
     48 C48       -76.9476   25.9905  -69.9430 C.3       11 UNK         0.0225 
     49 N         -76.5639   23.9698  -74.3402 N.am      5 UNK        -0.4615 
     50 C         -75.8273   23.1297  -75.0798 C.2       4 UNK         0.5053 
     51 O         -74.6220   23.2703  -75.2796 O.2       4 UNK        -0.5105 
     52 CA        -76.5698   21.9593  -75.7440 C.3       4 UNK         0.0263 
     53 CB        -76.7822   20.8127  -74.7428 C.3       4 UNK        -0.1981 
     54 N         -77.8577   22.3644  -76.3119 N.am      4 UNK        -0.4224 
     55 C         -77.9987   23.2083  -77.3449 C.2       3 UNK         0.4895 
     56 O         -77.0550   23.6926  -77.9711 O.2       3 UNK        -0.5091 
     57 CA        -79.4395   23.6188  -77.7048 C.3       3 UNK         0.0250 
     58 CB        -80.0862   22.5739  -78.6281 C.3       3 UNK        -0.1996 
     59 N         -80.2998   23.8472  -76.5339 N.am      3 UNK        -0.4254 
     60 C         -80.0452   24.7562  -75.5821 C.2       2 UNK         0.5004 
     61 O         -79.0436   25.4719  -75.5901 O.2       2 UNK        -0.5226 
     62 CA        -81.0333   24.8392  -74.4031 C.3       2 UNK         0.0269 
     63 CB        -80.8312   23.6483  -73.4506 C.3       2 UNK        -0.1926 
     64 N         -80.8580   26.0787  -73.6388 N.am      2 UNK        -0.4687 
     65 C         -81.1859   27.2978  -74.0860 C.2       1 UNK         0.5165 
     66 O         -81.8280   27.4962  -75.1218 O.2       1 UNK        -0.5079 
     67 H67       -79.5597   31.1981  -75.9556 H         1 UNK         0.0900 
     68 H68       -78.1395   30.2883  -76.4711 H         1 UNK         0.0900 
     69 H69       -78.0171   31.4281  -75.1275 H         1 UNK         0.0900 
     70 H70       -80.9039   30.2344  -74.4144 H         1 UNK         0.2959 
     71 H71       -79.8998   28.1661  -72.6032 H         1 UNK         0.1079 
     72 H72       -82.8071   29.0966  -72.8475 H         1 UNK         0.0837 
     73 H73       -81.6326   30.0566  -72.0016 H         1 UNK         0.0837 
     74 H74       -81.3380   29.9744  -69.5737 H         1 UNK         0.0685 
     75 H75       -81.2478   28.5255  -68.6048 H         1 UNK         0.0685 
     76 H76       -79.5095   26.7032  -69.3167 H         1 UNK         0.1434 
     77 H77       -75.8363   28.2859  -70.8149 H         1 UNK         0.1329 
     78 H78       -79.3341   30.7704  -70.6635 H         1 UNK         0.1335 
     79 H79       -76.7942   31.7132  -70.8641 H         1 UNK         0.0680 
     80 H80       -77.3582   31.0844  -72.3953 H         1 UNK         0.0680 
     81 H81       -74.0371   32.0322  -73.5867 H         1 UNK         0.1032 
     82 H82       -75.7668   32.0680  -73.7068 H         1 UNK         0.1032 
     83 H83       -75.7341   29.7883  -74.7716 H         1 UNK         0.0461 
     84 H84       -74.0882   29.6673  -77.2874 H         1 UNK         0.3453 
     85 H85       -74.6021   31.0776  -78.1782 H         1 UNK         0.3453 
     86 H86       -73.9678   28.5077  -74.5728 H         1 UNK         0.2984 
     87 H87       -70.4816   29.0323  -75.1003 H         1 UNK         0.0554 
     88 H88       -70.1055   28.1671  -72.8050 H         1 UNK         0.0847 
     89 H89       -71.7883   28.4789  -72.3793 H         1 UNK         0.0847 
     90 H90       -70.6969   29.8151  -72.7162 H         1 UNK         0.0847 
     91 H91       -72.7289   27.1543  -74.9071 H         1 UNK         0.3141 
     92 H92       -70.5445   24.3800  -75.6940 H         1 UNK         0.0743 
     93 H93       -72.1208   23.3167  -74.1328 H         1 UNK         0.0784 
     94 H94       -71.0656   24.4067  -73.2500 H         1 UNK         0.0784 
     95 H95       -72.7196   24.8864  -73.6004 H         1 UNK         0.0784 
     96 H96       -73.3574   24.6206  -76.0007 H         1 UNK         0.3213 
     97 H97       -73.2889   25.5179  -79.4767 H         1 UNK         0.0855 
     98 H98       -74.0247   22.9270  -78.0076 H         1 UNK         0.0814 
     99 H99       -72.9007   23.0492  -79.3550 H         1 UNK         0.0814 
    100 H100      -74.6016   23.4164  -79.5985 H         1 UNK         0.0814 
    101 H101      -75.4599   24.9459  -77.7191 H         1 UNK         0.3105 
    102 H102      -75.9726   28.2907  -76.5435 H         1 UNK         0.0547 
    103 H103      -77.5593   26.3703  -78.3195 H         1 UNK         0.0837 
    104 H104      -78.2330   27.6750  -77.3466 H         1 UNK         0.0837 
    105 H105      -77.1739   28.0436  -78.7005 H         1 UNK         0.0837 
    106 H106      -77.3188   25.9633  -75.7998 H         1 UNK         0.3020 
    107 H107      -75.1852   24.9262  -73.1158 H         1 UNK         0.1245 
    108 H108      -76.7314   26.8407  -72.5035 H         1 UNK         0.0781 
    109 H109      -78.0279   26.0527  -73.3207 H         1 UNK         0.0781 
    110 H110      -77.2002   25.5337  -68.9850 H         1 UNK         0.0836 
    111 H111      -75.8599   26.0746  -69.9641 H         1 UNK         0.0836 
    112 H112      -77.5559   23.8091  -74.2613 H         1 UNK         0.3022 
    113 H113      -75.9438   21.5900  -76.5594 H         1 UNK         0.0747 
    114 H114      -77.2362   19.9458  -75.2232 H         1 UNK         0.0793 
    115 H115      -75.8313   20.4854  -74.3197 H         1 UNK         0.0793 
    116 H116      -77.4228   21.1110  -73.9118 H         1 UNK         0.0793 
    117 H117      -78.6902   22.0127  -75.8627 H         1 UNK         0.3047 
    118 H118      -79.3783   24.5621  -78.2517 H         1 UNK         0.0822 
    119 H119      -81.0647   22.9041  -78.9772 H         1 UNK         0.0807 
    120 H120      -80.2138   21.6131  -78.1280 H         1 UNK         0.0807 
    121 H121      -79.4708   22.4018  -79.5125 H         1 UNK         0.0807 
    122 H122      -81.1351   23.2832  -76.4657 H         1 UNK         0.2946 
    123 H123      -82.0501   24.8156  -74.8019 H         1 UNK         0.1144 
    124 H124      -81.5296   23.6884  -72.6144 H         1 UNK         0.0793 
    125 H125      -79.8211   23.6252  -73.0396 H         1 UNK         0.0793 
    126 H126      -80.9982   22.6988  -73.9606 H         1 UNK         0.0793 
    127 H127      -80.3312   26.0045  -72.7809 H         1 UNK         0.2896 
@<TRIPOS>BOND
     1    1    2 1    
     2    1   67 1    
     3    1   68 1    
     4    1   69 1    
     5    2    3 2    
     6    2    4 am   BACKBONE|DICT|INTERRES
     7    4    5 1    
     8    4   70 1    
     9    5    6 1    
    10    5   65 1    
    11    5   71 1    
    12    6    7 1    
    13    6   72 1    
    14    6   73 1    
    15    7    8 1    
    16    8    9 1    
    17    8   74 1    
    18    8   75 1    
    19    9   10 ar   
    20    9   14 ar   
    21   10   11 ar   
    22   10   76 1    
    23   11   12 ar   
    24   11   48 1    
    25   12   13 ar   
    26   12   77 1    
    27   13   14 ar   
    28   13   15 1    
    29   14   78 1    
    30   15   16 1    
    31   15   79 1    
    32   15   80 1    
    33   16   17 1    
    34   17   18 1    
    35   17   81 1    
    36   17   82 1    
    37   18   19 1    
    38   18   22 1    
    39   18   83 1    
    40   19   20 am   BACKBONE|DICT|INTERRES
    41   19   21 2    
    42   20   84 1    
    43   20   85 1    
    44   22   23 am   BACKBONE|DICT|INTERRES
    45   22   86 1    
    46   23   24 2    
    47   23   25 1    
    48   25   26 1    
    49   25   27 1    
    50   25   87 1    
    51   26   88 1    
    52   26   89 1    
    53   26   90 1    
    54   27   28 am   BACKBONE|DICT|INTERRES
    55   27   91 1    
    56   28   29 2    
    57   28   30 1    
    58   30   31 1    
    59   30   32 1    
    60   30   92 1    
    61   31   93 1    
    62   31   94 1    
    63   31   95 1    
    64   32   33 am   BACKBONE|DICT|INTERRES
    65   32   96 1    
    66   33   34 2    
    67   33   35 1    
    68   35   36 1    
    69   35   37 1    
    70   35   97 1    
    71   36   98 1    
    72   36   99 1    
    73   36  100 1    
    74   37   38 am   BACKBONE|DICT|INTERRES
    75   37  101 1    
    76   38   39 2    
    77   38   40 1    
    78   40   41 1    
    79   40   42 1    
    80   40  102 1    
    81   41  103 1    
    82   41  104 1    
    83   41  105 1    
    84   42   43 am   BACKBONE|DICT|INTERRES
    85   42  106 1    
    86   43   44 2    
    87   43   45 1    
    88   45   46 1    
    89   45   49 1    
    90   45  107 1    
    91   46   47 1    
    92   46  108 1    
    93   46  109 1    
    94   47   48 1    
    95   48  110 1    
    96   48  111 1    
    97   49   50 am   BACKBONE|DICT|INTERRES
    98   49  112 1    
    99   50   51 2    
   100   50   52 1    
   101   52   53 1    
   102   52   54 1    
   103   52  113 1    
   104   53  114 1    
   105   53  115 1    
   106   53  116 1    
   107   54   55 am   BACKBONE|DICT|INTERRES
   108   54  117 1    
   109   55   56 2    
   110   55   57 1    
   111   57   58 1    
   112   57   59 1    
   113   57  118 1    
   114   58  119 1    
   115   58  120 1    
   116   58  121 1    
   117   59   60 am   BACKBONE|DICT|INTERRES
   118   59  122 1    
   119   60   61 2    
   120   60   62 1    
   121   62   63 1    
   122   62   64 1    
   123   62  123 1    
   124   63  124 1    
   125   63  125 1    
   126   63  126 1    
   127   64   65 am   BACKBONE|DICT|INTERRES
   128   64  127 1    
   129   65   66 2    
@<TRIPOS>SUBSTRUCTURE
     1 UNK         1 GROUP             0       ****    0 ROOT    
