@<TRIPOS>MOLECULE
3R135
127   129    1
SMALL
USER_CHARGES


@<TRIPOS>ATOM
      1 CA        -80.8053   22.2886  -71.2378 C.3       0 UNK        -0.1998 
      2 C         -80.3536   23.6330  -71.7874 C.2       0 UNK         0.4909 
      3 O         -80.2397   23.7898  -73.0009 O.2       0 UNK        -0.5240 
      4 N         -80.1023   24.6061  -70.9055 N.am      1 UNK        -0.4739 
      5 CA        -79.5873   25.9337  -71.2545 C.3       1 UNK         0.0864 
      6 C6        -79.8889   26.9575  -70.1331 C.3       11 UNK        -0.0881 
      7 S7        -81.6198   27.5223  -70.2565 S.3       11 UNK        -0.2682 
      8 C8        -81.4430   29.2849  -70.6958 C.3       11 UNK         0.0289 
      9 C9        -80.4694   29.5329  -71.8433 C.ar      11 UNK        -0.0687 
     10 C10       -80.7831   29.1365  -73.1469 C.ar      11 UNK        -0.0823 
     11 C11       -79.8931   29.3852  -74.2002 C.ar      11 UNK        -0.0830 
     12 C12       -78.6923   30.0546  -73.9292 C.ar      11 UNK        -0.1021 
     13 C13       -78.3553   30.4495  -72.6279 C.ar      11 UNK        -0.0753 
     14 C14       -79.2578   30.1848  -71.5951 C.ar      11 UNK        -0.0933 
     15 C15       -77.0563   31.1903  -72.2882 C.3       11 UNK         0.0166 
     16 S16       -75.6728   30.9281  -73.4536 S.3       11 UNK        -0.2615 
     17 C17       -74.2225   31.2117  -72.3811 C.3       11 UNK        -0.0865 
     18 CA        -72.9395   31.6274  -73.1676 C.3       10 UNK         0.0862 
     19 C         -71.7800   32.1098  -72.2387 C.2       10 UNK         0.5551 
     20 N         -72.0691   32.9323  -71.2384 N.am      10 UNK        -0.7319 
     21 O         -70.6085   31.7914  -72.4368 O.2       10 UNK        -0.5018 
     22 N         -72.5010   30.6326  -74.1688 N.am      10 UNK        -0.4509 
     23 C         -72.0688   29.3870  -73.9283 C.2       10 UNK         0.4899 
     24 O         -72.0916   28.8350  -72.8266 O.2       10 UNK        -0.4839 
     25 CA        -71.4837   28.6282  -75.1270 C.3       9 UNK         0.0222 
     26 CB        -69.9753   28.9016  -75.2631 C.3       9 UNK        -0.1966 
     27 N         -71.7162   27.1924  -74.9549 N.am      9 UNK        -0.4218 
     28 C         -71.8697   26.3058  -75.9485 C.2       9 UNK         0.5020 
     29 O         -71.7705   26.6046  -77.1404 O.2       9 UNK        -0.5274 
     30 CA        -72.2149   24.8528  -75.5733 C.3       8 UNK         0.0270 
     31 CB        -72.6935   24.6685  -74.1173 C.3       8 UNK        -0.1976 
     32 N         -73.2518   24.3624  -76.4828 N.am      8 UNK        -0.4313 
     33 C         -73.2373   23.2052  -77.1539 C.2       8 UNK         0.5041 
     34 O         -72.3285   22.3748  -77.0829 O.2       8 UNK        -0.5577 
     35 CA        -74.4798   22.9371  -78.0288 C.3       7 UNK         0.0284 
     36 CB        -74.4202   21.6014  -78.8020 C.3       7 UNK        -0.1958 
     37 N         -75.7144   23.0639  -77.2394 N.am      7 UNK        -0.4454 
     38 C         -76.1012   22.2895  -76.2146 C.2       7 UNK         0.5089 
     39 O         -75.5487   21.2330  -75.9064 O.2       7 UNK        -0.5125 
     40 CA        -77.2743   22.7750  -75.3453 C.3       6 UNK         0.0408 
     41 CB        -76.7695   23.0480  -73.9196 C.3       6 UNK        -0.1791 
     42 N         -77.9408   23.9839  -75.8537 N.am      6 UNK        -0.4762 
     43 C         -79.2245   24.0279  -76.2483 C.2       6 UNK         0.5007 
     44 O         -79.9504   23.0356  -76.3298 O.2       6 UNK        -0.5032 
     45 CA        -79.7998   25.4031  -76.6496 C.3       5 UNK         0.0783 
     46 C46       -80.4060   26.1447  -75.4278 C.3       11 UNK        -0.0857 
     47 S47       -81.3776   27.6189  -75.8930 S.3       11 UNK        -0.2512 
     48 C48       -80.2081   29.0063  -75.6509 C.3       11 UNK         0.0225 
     49 N         -78.8060   26.2039  -77.3710 N.am      5 UNK        -0.4615 
     50 C         -78.4537   25.9773  -78.6456 C.2       4 UNK         0.5053 
     51 O         -78.9538   25.0890  -79.3362 O.2       4 UNK        -0.5105 
     52 CA        -77.3769   26.8783  -79.2809 C.3       4 UNK         0.0263 
     53 CB        -78.0201   27.8557  -80.2787 C.3       4 UNK        -0.1981 
     54 N         -76.5796   27.6424  -78.3210 N.am      4 UNK        -0.4224 
     55 C         -75.7100   27.1179  -77.4495 C.2       3 UNK         0.4895 
     56 O         -75.4756   25.9129  -77.3580 O.2       3 UNK        -0.5091 
     57 CA        -75.0158   28.0800  -76.4685 C.3       3 UNK         0.0250 
     58 CB        -75.4204   29.5589  -76.6456 C.3       3 UNK        -0.1996 
     59 N         -75.1685   27.6468  -75.0664 N.am      3 UNK        -0.4254 
     60 C         -76.3249   27.3241  -74.4667 C.2       2 UNK         0.5004 
     61 O         -77.4120   27.3823  -75.0425 O.2       2 UNK        -0.5226 
     62 CA        -76.2779   26.7971  -73.0206 C.3       2 UNK         0.0269 
     63 CB        -75.4303   27.6436  -72.0568 C.3       2 UNK        -0.1926 
     64 N         -77.6451   26.6994  -72.5181 N.am      2 UNK        -0.4687 
     65 C         -78.0802   25.8690  -71.5667 C.2       1 UNK         0.5165 
     66 O         -77.3495   25.0990  -70.9381 O.2       1 UNK        -0.5079 
     67 H67       -80.1029   21.5095  -71.5328 H         1 UNK         0.0900 
     68 H68       -81.7865   22.0318  -71.6361 H         1 UNK         0.0900 
     69 H69       -80.8706   22.2933  -70.1499 H         1 UNK         0.0900 
     70 H70       -80.1920   24.4175  -69.9177 H         1 UNK         0.2959 
     71 H71       -80.0870   26.2605  -72.1702 H         1 UNK         0.1079 
     72 H72       -79.7252   26.5191  -69.1472 H         1 UNK         0.0837 
     73 H73       -79.2199   27.8175  -70.1776 H         1 UNK         0.0837 
     74 H74       -82.4234   29.6788  -70.9670 H         1 UNK         0.0685 
     75 H75       -81.1337   29.8335  -69.8047 H         1 UNK         0.0685 
     76 H76       -81.7269   28.6435  -73.3331 H         1 UNK         0.1434 
     77 H77       -78.0173   30.2675  -74.7445 H         1 UNK         0.1329 
     78 H78       -79.0176   30.4969  -70.5877 H         1 UNK         0.1335 
     79 H79       -77.2652   32.2591  -72.2301 H         1 UNK         0.0680 
     80 H80       -76.7276   30.8847  -71.2936 H         1 UNK         0.0680 
     81 H81       -74.0367   30.3164  -71.7869 H         1 UNK         0.1032 
     82 H82       -74.5022   31.9884  -71.6688 H         1 UNK         0.1032 
     83 H83       -73.1964   32.5091  -73.7559 H         1 UNK         0.0461 
     84 H84       -71.3202   33.2599  -70.6482 H         1 UNK         0.3453 
     85 H85       -73.0100   33.2508  -71.0711 H         1 UNK         0.3453 
     86 H86       -72.4109   30.9938  -75.1071 H         1 UNK         0.2984 
     87 H87       -71.9867   28.9771  -76.0306 H         1 UNK         0.0554 
     88 H88       -69.5579   28.4012  -76.1370 H         1 UNK         0.0847 
     89 H89       -69.4245   28.5597  -74.3858 H         1 UNK         0.0847 
     90 H90       -69.7778   29.9685  -75.3759 H         1 UNK         0.0847 
     91 H91       -71.8059   26.8944  -73.9913 H         1 UNK         0.3141 
     92 H92       -71.2984   24.2756  -75.7104 H         1 UNK         0.0743 
     93 H93       -71.9128   24.9305  -73.4021 H         1 UNK         0.0784 
     94 H94       -73.5722   25.2738  -73.8963 H         1 UNK         0.0784 
     95 H95       -72.9573   23.6281  -73.9248 H         1 UNK         0.0784 
     96 H96       -74.0142   25.0068  -76.6869 H         1 UNK         0.3213 
     97 H97       -74.5087   23.7363  -78.7715 H         1 UNK         0.0855 
     98 H98       -73.5671   21.5878  -79.4812 H         1 UNK         0.0814 
     99 H99       -75.3166   21.4508  -79.4033 H         1 UNK         0.0814 
    100 H100      -74.3128   20.7440  -78.1374 H         1 UNK         0.0814 
    101 H101      -76.2057   23.9392  -77.3738 H         1 UNK         0.3105 
    102 H102      -77.9837   21.9472  -75.2887 H         1 UNK         0.0547 
    103 H103      -76.4307   22.1267  -73.4442 H         1 UNK         0.0837 
    104 H104      -75.9249   23.7352  -73.9197 H         1 UNK         0.0837 
    105 H105      -77.5532   23.4639  -73.2885 H         1 UNK         0.0837 
    106 H106      -77.4178   24.8492  -75.8325 H         1 UNK         0.3020 
    107 H107      -80.6228   25.1983  -77.3389 H         1 UNK         0.1245 
    108 H108      -79.6472   26.4108  -74.6951 H         1 UNK         0.0781 
    109 H109      -81.0944   25.4814  -74.9012 H         1 UNK         0.0781 
    110 H110      -80.6322   29.8860  -76.1361 H         1 UNK         0.0836 
    111 H111      -79.2878   28.7840  -76.1907 H         1 UNK         0.0836 
    112 H112      -78.3228   26.9096  -76.8259 H         1 UNK         0.3022 
    113 H113      -76.6972   26.2247  -79.8319 H         1 UNK         0.0747 
    114 H114      -77.2661   28.4446  -80.8014 H         1 UNK         0.0793 
    115 H115      -78.5920   27.3202  -81.0380 H         1 UNK         0.0793 
    116 H116      -78.7041   28.5460  -79.7831 H         1 UNK         0.0793 
    117 H117      -76.7300   28.6404  -78.3012 H         1 UNK         0.3047 
    118 H118      -73.9604   28.0167  -76.7164 H         1 UNK         0.0822 
    119 H119      -74.7905   30.2042  -76.0366 H         1 UNK         0.0807 
    120 H120      -76.4575   29.7380  -76.3633 H         1 UNK         0.0807 
    121 H121      -75.2863   29.8952  -77.6745 H         1 UNK         0.0807 
    122 H122      -74.3168   27.5748  -74.5325 H         1 UNK         0.2946 
    123 H123      -75.8465   25.7982  -73.0665 H         1 UNK         0.1144 
    124 H124      -75.2813   27.1237  -71.1104 H         1 UNK         0.0793 
    125 H125      -75.9136   28.5912  -71.8301 H         1 UNK         0.0793 
    126 H126      -74.4420   27.8555  -72.4583 H         1 UNK         0.0793 
    127 H127      -78.3020   27.2804  -73.0268 H         1 UNK         0.2896 
@<TRIPOS>BOND
     1    1    2 1    
     2    1   67 1    
     3    1   68 1    
     4    1   69 1    
     5    2    3 2    
     6    2    4 am   BACKBONE|DICT|INTERRES
     7    4    5 1    
     8    4   70 1    
     9    5    6 1    
    10    5   65 1    
    11    5   71 1    
    12    6    7 1    
    13    6   72 1    
    14    6   73 1    
    15    7    8 1    
    16    8    9 1    
    17    8   74 1    
    18    8   75 1    
    19    9   10 ar   
    20    9   14 ar   
    21   10   11 ar   
    22   10   76 1    
    23   11   12 ar   
    24   11   48 1    
    25   12   13 ar   
    26   12   77 1    
    27   13   14 ar   
    28   13   15 1    
    29   14   78 1    
    30   15   16 1    
    31   15   79 1    
    32   15   80 1    
    33   16   17 1    
    34   17   18 1    
    35   17   81 1    
    36   17   82 1    
    37   18   19 1    
    38   18   22 1    
    39   18   83 1    
    40   19   20 am   BACKBONE|DICT|INTERRES
    41   19   21 2    
    42   20   84 1    
    43   20   85 1    
    44   22   23 am   BACKBONE|DICT|INTERRES
    45   22   86 1    
    46   23   24 2    
    47   23   25 1    
    48   25   26 1    
    49   25   27 1    
    50   25   87 1    
    51   26   88 1    
    52   26   89 1    
    53   26   90 1    
    54   27   28 am   BACKBONE|DICT|INTERRES
    55   27   91 1    
    56   28   29 2    
    57   28   30 1    
    58   30   31 1    
    59   30   32 1    
    60   30   92 1    
    61   31   93 1    
    62   31   94 1    
    63   31   95 1    
    64   32   33 am   BACKBONE|DICT|INTERRES
    65   32   96 1    
    66   33   34 2    
    67   33   35 1    
    68   35   36 1    
    69   35   37 1    
    70   35   97 1    
    71   36   98 1    
    72   36   99 1    
    73   36  100 1    
    74   37   38 am   BACKBONE|DICT|INTERRES
    75   37  101 1    
    76   38   39 2    
    77   38   40 1    
    78   40   41 1    
    79   40   42 1    
    80   40  102 1    
    81   41  103 1    
    82   41  104 1    
    83   41  105 1    
    84   42   43 am   BACKBONE|DICT|INTERRES
    85   42  106 1    
    86   43   44 2    
    87   43   45 1    
    88   45   46 1    
    89   45   49 1    
    90   45  107 1    
    91   46   47 1    
    92   46  108 1    
    93   46  109 1    
    94   47   48 1    
    95   48  110 1    
    96   48  111 1    
    97   49   50 am   BACKBONE|DICT|INTERRES
    98   49  112 1    
    99   50   51 2    
   100   50   52 1    
   101   52   53 1    
   102   52   54 1    
   103   52  113 1    
   104   53  114 1    
   105   53  115 1    
   106   53  116 1    
   107   54   55 am   BACKBONE|DICT|INTERRES
   108   54  117 1    
   109   55   56 2    
   110   55   57 1    
   111   57   58 1    
   112   57   59 1    
   113   57  118 1    
   114   58  119 1    
   115   58  120 1    
   116   58  121 1    
   117   59   60 am   BACKBONE|DICT|INTERRES
   118   59  122 1    
   119   60   61 2    
   120   60   62 1    
   121   62   63 1    
   122   62   64 1    
   123   62  123 1    
   124   63  124 1    
   125   63  125 1    
   126   63  126 1    
   127   64   65 am   BACKBONE|DICT|INTERRES
   128   64  127 1    
   129   65   66 2    
@<TRIPOS>SUBSTRUCTURE
     1 UNK         1 GROUP             0       ****    0 ROOT    
