@<TRIPOS>MOLECULE
3R135
127   129    1
SMALL
USER_CHARGES


@<TRIPOS>ATOM
      1 CA        -86.5092   27.4746  -70.7469 C.3       0 UNK        -0.1998 
      2 C         -85.5765   27.3961  -71.9466 C.2       0 UNK         0.4909 
      3 O         -86.0463   27.3233  -73.0833 O.2       0 UNK        -0.5240 
      4 N         -84.2608   27.4201  -71.7022 N.am      1 UNK        -0.4739 
      5 CA        -83.2144   27.2800  -72.7199 C.3       1 UNK         0.0864 
      6 C6        -81.9257   28.0445  -72.3128 C.3       11 UNK        -0.0881 
      7 S7        -81.0981   27.4092  -70.8103 S.3       11 UNK        -0.2682 
      8 C8        -80.1175   28.8559  -70.2989 C.3       11 UNK         0.0289 
      9 C9        -78.9612   29.1351  -71.2506 C.ar      11 UNK        -0.0687 
     10 C10       -79.1540   29.9493  -72.3705 C.ar      11 UNK        -0.0823 
     11 C11       -78.0991   30.2330  -73.2425 C.ar      11 UNK        -0.0830 
     12 C12       -76.8274   29.7224  -72.9581 C.ar      11 UNK        -0.1021 
     13 C13       -76.6215   28.8960  -71.8497 C.ar      11 UNK        -0.0753 
     14 C14       -77.6930   28.6014  -71.0008 C.ar      11 UNK        -0.0933 
     15 C15       -75.2370   28.3341  -71.5703 C.3       11 UNK         0.0166 
     16 S16       -74.2122   29.5630  -70.7071 S.3       11 UNK        -0.2615 
     17 C17       -72.6020   28.7093  -70.6124 C.3       11 UNK        -0.0865 
     18 CA        -71.6014   29.2254  -71.6815 C.3       10 UNK         0.0862 
     19 C         -70.1440   28.7647  -71.3755 C.2       10 UNK         0.5551 
     20 N         -69.4262   28.1256  -72.2923 N.am      10 UNK        -0.7319 
     21 O         -69.6463   29.0033  -70.2779 O.2       10 UNK        -0.5018 
     22 N         -72.0629   28.8998  -73.0393 N.am      10 UNK        -0.4509 
     23 C         -71.7760   29.5955  -74.1458 C.2       10 UNK         0.4899 
     24 O         -71.1552   30.6596  -74.1481 O.2       10 UNK        -0.4839 
     25 CA        -72.2597   28.9720  -75.4716 C.3       9 UNK         0.0222 
     26 CB        -71.5498   29.5581  -76.7095 C.3       9 UNK        -0.1966 
     27 N         -72.1846   27.5034  -75.4769 N.am      9 UNK        -0.4218 
     28 C         -71.0913   26.7482  -75.2843 C.2       9 UNK         0.5020 
     29 O         -69.9665   27.2064  -75.0814 O.2       9 UNK        -0.5274 
     30 CA        -71.2829   25.2267  -75.2752 C.3       8 UNK         0.0270 
     31 CB        -71.7111   24.7516  -73.8752 C.3       8 UNK        -0.1976 
     32 N         -72.2751   24.7946  -76.2640 N.am      8 UNK        -0.4313 
     33 C         -72.0008   24.0306  -77.3289 C.2       8 UNK         0.5041 
     34 O         -70.8739   23.6171  -77.6074 O.2       8 UNK        -0.5577 
     35 CA        -73.1776   23.6341  -78.2347 C.3       7 UNK         0.0284 
     36 CB        -73.8916   22.3899  -77.6814 C.3       7 UNK        -0.1958 
     37 N         -74.1564   24.7013  -78.4501 N.am      7 UNK        -0.4454 
     38 C         -73.9458   25.7808  -79.2168 C.2       7 UNK         0.5089 
     39 O         -72.8647   26.0530  -79.7390 O.2       7 UNK        -0.5125 
     40 CA        -75.1540   26.6961  -79.4676 C.3       6 UNK         0.0408 
     41 CB        -76.0948   26.0730  -80.5122 C.3       6 UNK        -0.1791 
     42 N         -75.8961   26.9429  -78.2322 N.am      6 UNK        -0.4762 
     43 C         -75.7177   28.0131  -77.4451 C.2       6 UNK         0.5007 
     44 O         -74.9608   28.9424  -77.7253 O.2       6 UNK        -0.5032 
     45 CA        -76.4838   28.0407  -76.1018 C.3       5 UNK         0.0783 
     46 C46       -77.7753   28.8959  -76.1878 C.3       11 UNK        -0.0857 
     47 S47       -77.4096   30.6723  -75.9609 S.3       11 UNK        -0.2512 
     48 C48       -78.3654   31.1105  -74.4655 C.3       11 UNK         0.0225 
     49 N         -76.7441   26.7014  -75.5622 N.am      5 UNK        -0.4615 
     50 C         -75.7811   25.8555  -75.1693 C.2       4 UNK         0.5053 
     51 O         -74.5827   26.1321  -75.1988 O.2       4 UNK        -0.5105 
     52 CA        -76.2005   24.4473  -74.7187 C.3       4 UNK         0.0263 
     53 CB        -76.4223   24.4318  -73.1982 C.3       4 UNK        -0.1981 
     54 N         -77.3951   23.9264  -75.3892 N.am      4 UNK        -0.4224 
     55 C         -77.6084   23.8555  -76.7129 C.2       3 UNK         0.4895 
     56 O         -76.7752   24.1881  -77.5562 O.2       3 UNK        -0.5091 
     57 CA        -78.9938   23.3717  -77.1836 C.3       3 UNK         0.0250 
     58 CB        -78.8905   21.9541  -77.7686 C.3       3 UNK        -0.1996 
     59 N         -80.0284   23.3924  -76.1404 N.am      3 UNK        -0.4254 
     60 C         -80.4704   24.4926  -75.5148 C.2       2 UNK         0.5004 
     61 O         -80.0777   25.6357  -75.7731 O.2       2 UNK        -0.5226 
     62 CA        -81.4543   24.2656  -74.3608 C.3       2 UNK         0.0269 
     63 CB        -80.7449   23.5607  -73.1824 C.3       2 UNK        -0.1926 
     64 N         -81.9624   25.5672  -73.9397 N.am      2 UNK        -0.4687 
     65 C         -82.9513   25.7964  -73.0701 C.2       1 UNK         0.5165 
     66 O         -83.6178   24.8966  -72.5494 O.2       1 UNK        -0.5079 
     67 H67       -85.9603   27.5527  -69.8085 H         1 UNK         0.0900 
     68 H68       -87.1352   26.5840  -70.7003 H         1 UNK         0.0900 
     69 H69       -87.1592   28.3450  -70.8327 H         1 UNK         0.0900 
     70 H70       -83.9288   27.4432  -70.7483 H         1 UNK         0.2959 
     71 H71       -83.5782   27.7410  -73.6413 H         1 UNK         0.1079 
     72 H72       -81.2024   28.0451  -73.1299 H         1 UNK         0.0837 
     73 H73       -82.1798   29.0931  -72.1510 H         1 UNK         0.0837 
     74 H74       -80.7654   29.7305  -70.2219 H         1 UNK         0.0685 
     75 H75       -79.7332   28.6777  -69.2934 H         1 UNK         0.0685 
     76 H76       -80.1329   30.3656  -72.5634 H         1 UNK         0.1434 
     77 H77       -75.9912   29.9674  -73.5972 H         1 UNK         0.1329 
     78 H78       -77.5368   27.9700  -70.1368 H         1 UNK         0.1335 
     79 H79       -74.7627   28.0474  -72.5099 H         1 UNK         0.0680 
     80 H80       -75.3063   27.4275  -70.9668 H         1 UNK         0.0680 
     81 H81       -72.2142   28.8855  -69.6071 H         1 UNK         0.1032 
     82 H82       -72.7385   27.6295  -70.6931 H         1 UNK         0.1032 
     83 H83       -71.5736   30.3135  -71.5946 H         1 UNK         0.0461 
     84 H84       -68.4855   27.8463  -72.0646 H         1 UNK         0.3453 
     85 H85       -69.7887   27.9425  -73.2211 H         1 UNK         0.3453 
     86 H86       -72.5556   28.0265  -73.1416 H         1 UNK         0.2984 
     87 H87       -73.3178   29.2233  -75.5489 H         1 UNK         0.0554 
     88 H88       -71.9357   29.1178  -77.6292 H         1 UNK         0.0847 
     89 H89       -70.4734   29.3867  -76.6791 H         1 UNK         0.0847 
     90 H90       -71.7075   30.6350  -76.7781 H         1 UNK         0.0847 
     91 H91       -73.0814   27.0239  -75.5361 H         1 UNK         0.3141 
     92 H92       -70.3090   24.7824  -75.4912 H         1 UNK         0.0743 
     93 H93       -70.9842   25.0561  -73.1207 H         1 UNK         0.0784 
     94 H94       -72.6780   25.1598  -73.5798 H         1 UNK         0.0784 
     95 H95       -71.7828   23.6647  -73.8342 H         1 UNK         0.0784 
     96 H96       -73.2278   25.1115  -76.1155 H         1 UNK         0.3213 
     97 H97       -72.7599   23.3695  -79.2089 H         1 UNK         0.0855 
     98 H98       -74.6751   22.0485  -78.3583 H         1 UNK         0.0814 
     99 H99       -74.3499   22.5820  -76.7118 H         1 UNK         0.0814 
    100 H100      -73.1916   21.5632  -77.5530 H         1 UNK         0.0814 
    101 H101      -75.0960   24.5368  -78.0923 H         1 UNK         0.3105 
    102 H102      -74.7829   27.6377  -79.8780 H         1 UNK         0.0547 
    103 H103      -76.5127   25.1244  -80.1730 H         1 UNK         0.0837 
    104 H104      -76.9255   26.7400  -80.7427 H         1 UNK         0.0837 
    105 H105      -75.5660   25.8805  -81.4467 H         1 UNK         0.0837 
    106 H106      -76.4928   26.1904  -77.9068 H         1 UNK         0.3020 
    107 H107      -75.8065   28.5129  -75.3883 H         1 UNK         0.1245 
    108 H108      -78.4875   28.5874  -75.4209 H         1 UNK         0.0781 
    109 H109      -78.2930   28.7504  -77.1380 H         1 UNK         0.0781 
    110 H110      -78.1451   32.1461  -74.2036 H         1 UNK         0.0836 
    111 H111      -79.4245   31.0791  -74.7269 H         1 UNK         0.0836 
    112 H112      -77.7091   26.3995  -75.5269 H         1 UNK         0.3022 
    113 H113      -75.3756   23.7721  -74.9501 H         1 UNK         0.0747 
    114 H114      -75.5366   24.7893  -72.6706 H         1 UNK         0.0793 
    115 H115      -76.6268   23.4243  -72.8354 H         1 UNK         0.0793 
    116 H116      -77.2558   25.0717  -72.9042 H         1 UNK         0.0793 
    117 H117      -78.1439   23.6210  -74.7867 H         1 UNK         0.3047 
    118 H118      -79.3118   24.0489  -77.9791 H         1 UNK         0.0822 
    119 H119      -78.1493   21.9144  -78.5685 H         1 UNK         0.0807 
    120 H120      -79.8399   21.6297  -78.1951 H         1 UNK         0.0807 
    121 H121      -78.5932   21.2254  -77.0134 H         1 UNK         0.0807 
    122 H122      -80.4016   22.4948  -75.8643 H         1 UNK         0.2946 
    123 H123      -82.2860   23.6565  -74.7216 H         1 UNK         0.1144 
    124 H124      -81.4310   23.3616  -72.3594 H         1 UNK         0.0793 
    125 H125      -79.9254   24.1640  -72.7890 H         1 UNK         0.0793 
    126 H126      -80.3304   22.5971  -73.4806 H         1 UNK         0.0793 
    127 H127      -81.4656   26.3414  -74.3654 H         1 UNK         0.2896 
@<TRIPOS>BOND
     1    1    2 1    
     2    1   67 1    
     3    1   68 1    
     4    1   69 1    
     5    2    3 2    
     6    2    4 am   BACKBONE|DICT|INTERRES
     7    4    5 1    
     8    4   70 1    
     9    5    6 1    
    10    5   65 1    
    11    5   71 1    
    12    6    7 1    
    13    6   72 1    
    14    6   73 1    
    15    7    8 1    
    16    8    9 1    
    17    8   74 1    
    18    8   75 1    
    19    9   10 ar   
    20    9   14 ar   
    21   10   11 ar   
    22   10   76 1    
    23   11   12 ar   
    24   11   48 1    
    25   12   13 ar   
    26   12   77 1    
    27   13   14 ar   
    28   13   15 1    
    29   14   78 1    
    30   15   16 1    
    31   15   79 1    
    32   15   80 1    
    33   16   17 1    
    34   17   18 1    
    35   17   81 1    
    36   17   82 1    
    37   18   19 1    
    38   18   22 1    
    39   18   83 1    
    40   19   20 am   BACKBONE|DICT|INTERRES
    41   19   21 2    
    42   20   84 1    
    43   20   85 1    
    44   22   23 am   BACKBONE|DICT|INTERRES
    45   22   86 1    
    46   23   24 2    
    47   23   25 1    
    48   25   26 1    
    49   25   27 1    
    50   25   87 1    
    51   26   88 1    
    52   26   89 1    
    53   26   90 1    
    54   27   28 am   BACKBONE|DICT|INTERRES
    55   27   91 1    
    56   28   29 2    
    57   28   30 1    
    58   30   31 1    
    59   30   32 1    
    60   30   92 1    
    61   31   93 1    
    62   31   94 1    
    63   31   95 1    
    64   32   33 am   BACKBONE|DICT|INTERRES
    65   32   96 1    
    66   33   34 2    
    67   33   35 1    
    68   35   36 1    
    69   35   37 1    
    70   35   97 1    
    71   36   98 1    
    72   36   99 1    
    73   36  100 1    
    74   37   38 am   BACKBONE|DICT|INTERRES
    75   37  101 1    
    76   38   39 2    
    77   38   40 1    
    78   40   41 1    
    79   40   42 1    
    80   40  102 1    
    81   41  103 1    
    82   41  104 1    
    83   41  105 1    
    84   42   43 am   BACKBONE|DICT|INTERRES
    85   42  106 1    
    86   43   44 2    
    87   43   45 1    
    88   45   46 1    
    89   45   49 1    
    90   45  107 1    
    91   46   47 1    
    92   46  108 1    
    93   46  109 1    
    94   47   48 1    
    95   48  110 1    
    96   48  111 1    
    97   49   50 am   BACKBONE|DICT|INTERRES
    98   49  112 1    
    99   50   51 2    
   100   50   52 1    
   101   52   53 1    
   102   52   54 1    
   103   52  113 1    
   104   53  114 1    
   105   53  115 1    
   106   53  116 1    
   107   54   55 am   BACKBONE|DICT|INTERRES
   108   54  117 1    
   109   55   56 2    
   110   55   57 1    
   111   57   58 1    
   112   57   59 1    
   113   57  118 1    
   114   58  119 1    
   115   58  120 1    
   116   58  121 1    
   117   59   60 am   BACKBONE|DICT|INTERRES
   118   59  122 1    
   119   60   61 2    
   120   60   62 1    
   121   62   63 1    
   122   62   64 1    
   123   62  123 1    
   124   63  124 1    
   125   63  125 1    
   126   63  126 1    
   127   64   65 am   BACKBONE|DICT|INTERRES
   128   64  127 1    
   129   65   66 2    
@<TRIPOS>SUBSTRUCTURE
     1 UNK         1 GROUP             0       ****    0 ROOT    
