@<TRIPOS>MOLECULE
3R135
127   129    1
SMALL
USER_CHARGES


@<TRIPOS>ATOM
      1 CA        -83.9946   25.4872  -68.9956 C.3       0 UNK        -0.1998 
      2 C         -83.8721   26.0116  -70.4185 C.2       0 UNK         0.4909 
      3 O         -84.8829   26.1538  -71.1082 O.2       0 UNK        -0.5240 
      4 N         -82.6432   26.3098  -70.8577 N.am      1 UNK        -0.4739 
      5 CA        -82.3255   26.7732  -72.2138 C.3       1 UNK         0.0864 
      6 C6        -80.8952   27.3612  -72.3019 C.3       11 UNK        -0.0881 
      7 S7        -80.6319   28.7357  -71.1303 S.3       11 UNK        -0.2682 
      8 C8        -80.4782   30.1625  -72.2489 C.3       11 UNK         0.0289 
      9 C9        -79.2003   30.1001  -73.0729 C.ar      11 UNK        -0.0687 
     10 C10       -79.2554   29.8513  -74.4469 C.ar      11 UNK        -0.0823 
     11 C11       -78.0831   29.8041  -75.2066 C.ar      11 UNK        -0.0830 
     12 C12       -76.8485   30.0161  -74.5841 C.ar      11 UNK        -0.1021 
     13 C13       -76.7808   30.2503  -73.2076 C.ar      11 UNK        -0.0753 
     14 C14       -77.9604   30.2979  -72.4595 C.ar      11 UNK        -0.0933 
     15 C15       -75.4412   30.4528  -72.5175 C.3       11 UNK         0.0166 
     16 S16       -74.7602   28.8714  -71.9277 S.3       11 UNK        -0.2615 
     17 C17       -73.7237   28.3686  -73.3434 C.3       11 UNK        -0.0865 
     18 CA        -72.2193   28.6908  -73.1058 C.3       10 UNK         0.0862 
     19 C         -71.4238   27.4808  -72.5272 C.2       10 UNK         0.5551 
     20 N         -70.2705   27.1093  -73.0707 N.am      10 UNK        -0.7319 
     21 O         -71.8565   26.8657  -71.5564 O.2       10 UNK        -0.5018 
     22 N         -71.6052   29.3144  -74.2910 N.am      10 UNK        -0.4509 
     23 C         -70.6320   30.2347  -74.2306 C.2       10 UNK         0.4899 
     24 O         -70.1982   30.6988  -73.1743 O.2       10 UNK        -0.4839 
     25 CA        -70.0360   30.7094  -75.5722 C.3       9 UNK         0.0222 
     26 CB        -68.7660   31.5667  -75.3872 C.3       9 UNK        -0.1966 
     27 N         -69.7676   29.6249  -76.5238 N.am      9 UNK        -0.4218 
     28 C         -69.0640   28.5010  -76.3255 C.2       9 UNK         0.5020 
     29 O         -68.5780   28.1788  -75.2400 O.2       9 UNK        -0.5274 
     30 CA        -68.9009   27.5729  -77.5486 C.3       8 UNK         0.0270 
     31 CB        -68.1456   26.2735  -77.2097 C.3       8 UNK        -0.1976 
     32 N         -70.1883   27.2251  -78.1555 N.am      8 UNK        -0.4313 
     33 C         -70.9489   28.0343  -78.9051 C.2       8 UNK         0.5041 
     34 O         -70.6157   29.1775  -79.2217 O.2       8 UNK        -0.5577 
     35 CA        -72.3275   27.5054  -79.3334 C.3       7 UNK         0.0284 
     36 CB        -72.2659   26.9418  -80.7623 C.3       7 UNK        -0.1958 
     37 N         -72.8796   26.4880  -78.4319 N.am      7 UNK        -0.4454 
     38 C         -73.2371   26.7012  -77.1587 C.2       7 UNK         0.5089 
     39 O         -73.0979   27.7736  -76.5631 O.2       7 UNK        -0.5125 
     40 CA        -73.8442   25.5072  -76.4203 C.3       6 UNK         0.0408 
     41 CB        -72.8664   24.9358  -75.3804 C.3       6 UNK        -0.1791 
     42 N         -75.0657   25.9692  -75.7715 N.am      6 UNK        -0.4762 
     43 C         -76.2043   25.2723  -75.6950 C.2       6 UNK         0.5007 
     44 O         -76.3128   24.1031  -76.0745 O.2       6 UNK        -0.5032 
     45 CA        -77.4437   26.0220  -75.1489 C.3       5 UNK         0.0783 
     46 C46       -78.2363   26.7138  -76.2910 C.3       11 UNK        -0.0857 
     47 S47       -77.2951   28.0083  -77.1790 S.3       11 UNK        -0.2512 
     48 C48       -78.1562   29.5392  -76.7031 C.3       11 UNK         0.0225 
     49 N         -78.3022   25.0907  -74.4048 N.am      5 UNK        -0.4615 
     50 C         -77.9557   24.5102  -73.2442 C.2       4 UNK         0.5053 
     51 O         -76.9661   24.8509  -72.5954 O.2       4 UNK        -0.5105 
     52 CA        -78.8193   23.3471  -72.7105 C.3       4 UNK         0.0263 
     53 CB        -79.4226   23.6640  -71.3309 C.3       4 UNK        -0.1981 
     54 N         -79.8829   22.9316  -73.6296 N.am      4 UNK        -0.4224 
     55 C         -79.6966   22.1142  -74.6782 C.2       3 UNK         0.4895 
     56 O         -78.6253   21.5596  -74.9244 O.2       3 UNK        -0.5091 
     57 CA        -80.8885   21.8665  -75.6254 C.3       3 UNK         0.0250 
     58 CB        -81.5089   20.4854  -75.3567 C.3       3 UNK        -0.1996 
     59 N         -81.9438   22.8820  -75.5635 N.am      3 UNK        -0.4254 
     60 C         -81.7948   24.1803  -75.8603 C.2       2 UNK         0.5004 
     61 O         -80.7326   24.6756  -76.2356 O.2       2 UNK        -0.5226 
     62 CA        -83.0115   25.1006  -75.6412 C.3       2 UNK         0.0269 
     63 CB        -84.3550   24.3473  -75.5047 C.3       2 UNK        -0.1926 
     64 N         -82.8127   25.9966  -74.4927 N.am      2 UNK        -0.4687 
     65 C         -82.4999   25.6336  -73.2387 C.2       1 UNK         0.5165 
     66 O         -82.3131   24.4638  -72.8898 O.2       1 UNK        -0.5079 
     67 H67       -84.6351   26.1436  -68.4072 H         1 UNK         0.0900 
     68 H68       -84.4378   24.4918  -69.0003 H         1 UNK         0.0900 
     69 H69       -83.0261   25.4246  -68.4996 H         1 UNK         0.0900 
     70 H70       -81.8502   26.1770  -70.2474 H         1 UNK         0.2959 
     71 H71       -83.0378   27.5619  -72.4673 H         1 UNK         0.1079 
     72 H72       -80.6884   27.7015  -73.3172 H         1 UNK         0.0837 
     73 H73       -80.1421   26.6018  -72.0919 H         1 UNK         0.0837 
     74 H74       -81.3593   30.2163  -72.8904 H         1 UNK         0.0685 
     75 H75       -80.4760   31.0772  -71.6545 H         1 UNK         0.0685 
     76 H76       -80.2128   29.6970  -74.9256 H         1 UNK         0.1434 
     77 H77       -75.9425   29.9874  -75.1735 H         1 UNK         0.1329 
     78 H78       -77.9151   30.4791  -71.3941 H         1 UNK         0.1335 
     79 H79       -74.7325   30.9484  -73.1831 H         1 UNK         0.0680 
     80 H80       -75.5651   31.1184  -71.6619 H         1 UNK         0.0680 
     81 H81       -73.8833   27.3048  -73.5236 H         1 UNK         0.1032 
     82 H82       -74.0917   28.8679  -74.2396 H         1 UNK         0.1032 
     83 H83       -72.1747   29.4382  -72.3113 H         1 UNK         0.0461 
     84 H84       -69.8555   27.6221  -73.8416 H         1 UNK         0.3453 
     85 H85       -69.7749   26.3281  -72.6728 H         1 UNK         0.3453 
     86 H86       -71.8996   28.9515  -75.1910 H         1 UNK         0.2984 
     87 H87       -70.7966   31.3399  -76.0349 H         1 UNK         0.0554 
     88 H88       -68.9682   32.4426  -74.7694 H         1 UNK         0.0847 
     89 H89       -68.3881   31.9288  -76.3433 H         1 UNK         0.0847 
     90 H90       -67.9676   31.0028  -74.9032 H         1 UNK         0.0847 
     91 H91       -70.1464   29.7502  -77.4608 H         1 UNK         0.3141 
     92 H92       -68.3077   28.1191  -78.2852 H         1 UNK         0.0743 
     93 H93       -68.6799   25.6769  -76.4690 H         1 UNK         0.0784 
     94 H94       -67.9981   25.6566  -78.0963 H         1 UNK         0.0784 
     95 H95       -67.1573   26.4907  -76.8020 H         1 UNK         0.0784 
     96 H96       -70.5605   26.3152  -77.9272 H         1 UNK         0.3213 
     97 H97       -73.0131   28.3558  -79.3300 H         1 UNK         0.0855 
     98 H98       -71.6125   26.0708  -80.8267 H         1 UNK         0.0814 
     99 H99       -71.8821   27.6884  -81.4594 H         1 UNK         0.0814 
    100 H100      -73.2542   26.6495  -81.1177 H         1 UNK         0.0814 
    101 H101      -73.0368   25.5726  -78.8301 H         1 UNK         0.3105 
    102 H102      -74.0805   24.7276  -77.1480 H         1 UNK         0.0547 
    103 H103      -71.9693   24.5458  -75.8624 H         1 UNK         0.0837 
    104 H104      -72.5453   25.6908  -74.6640 H         1 UNK         0.0837 
    105 H105      -73.3171   24.1153  -74.8220 H         1 UNK         0.0837 
    106 H106      -75.0682   26.9528  -75.5349 H         1 UNK         0.3020 
    107 H107      -77.1059   26.7890  -74.4473 H         1 UNK         0.1245 
    108 H108      -79.1536   27.1501  -75.8929 H         1 UNK         0.0781 
    109 H109      -78.5576   25.9758  -77.0282 H         1 UNK         0.0781 
    110 H110      -79.1910   29.4854  -77.0451 H         1 UNK         0.0836 
    111 H111      -77.7027   30.3774  -77.2337 H         1 UNK         0.0836 
    112 H112      -79.1124   24.7446  -74.9066 H         1 UNK         0.3022 
    113 H113      -78.1375   22.5053  -72.5716 H         1 UNK         0.0747 
    114 H114      -79.9175   22.7890  -70.9094 H         1 UNK         0.0793 
    115 H115      -78.6499   23.9679  -70.6234 H         1 UNK         0.0793 
    116 H116      -80.1557   24.4657  -71.3759 H         1 UNK         0.0793 
    117 H117      -80.7994   23.3466  -73.4815 H         1 UNK         0.3047 
    118 H118      -80.4914   21.8714  -76.6427 H         1 UNK         0.0822 
    119 H119      -82.2887   20.2514  -76.0816 H         1 UNK         0.0807 
    120 H120      -81.9466   20.4275  -74.3593 H         1 UNK         0.0807 
    121 H121      -80.7570   19.6980  -75.4285 H         1 UNK         0.0807 
    122 H122      -82.8425   22.5777  -75.2181 H         1 UNK         0.2946 
    123 H123      -83.0739   25.7302  -76.5306 H         1 UNK         0.1144 
    124 H124      -85.1895   25.0479  -75.4688 H         1 UNK         0.0793 
    125 H125      -84.4032   23.7399  -74.6001 H         1 UNK         0.0793 
    126 H126      -84.5295   23.6912  -76.3588 H         1 UNK         0.0793 
    127 H127      -82.9072   26.9820  -74.6968 H         1 UNK         0.2896 
@<TRIPOS>BOND
     1    1    2 1    
     2    1   67 1    
     3    1   68 1    
     4    1   69 1    
     5    2    3 2    
     6    2    4 am   BACKBONE|DICT|INTERRES
     7    4    5 1    
     8    4   70 1    
     9    5    6 1    
    10    5   65 1    
    11    5   71 1    
    12    6    7 1    
    13    6   72 1    
    14    6   73 1    
    15    7    8 1    
    16    8    9 1    
    17    8   74 1    
    18    8   75 1    
    19    9   10 ar   
    20    9   14 ar   
    21   10   11 ar   
    22   10   76 1    
    23   11   12 ar   
    24   11   48 1    
    25   12   13 ar   
    26   12   77 1    
    27   13   14 ar   
    28   13   15 1    
    29   14   78 1    
    30   15   16 1    
    31   15   79 1    
    32   15   80 1    
    33   16   17 1    
    34   17   18 1    
    35   17   81 1    
    36   17   82 1    
    37   18   19 1    
    38   18   22 1    
    39   18   83 1    
    40   19   20 am   BACKBONE|DICT|INTERRES
    41   19   21 2    
    42   20   84 1    
    43   20   85 1    
    44   22   23 am   BACKBONE|DICT|INTERRES
    45   22   86 1    
    46   23   24 2    
    47   23   25 1    
    48   25   26 1    
    49   25   27 1    
    50   25   87 1    
    51   26   88 1    
    52   26   89 1    
    53   26   90 1    
    54   27   28 am   BACKBONE|DICT|INTERRES
    55   27   91 1    
    56   28   29 2    
    57   28   30 1    
    58   30   31 1    
    59   30   32 1    
    60   30   92 1    
    61   31   93 1    
    62   31   94 1    
    63   31   95 1    
    64   32   33 am   BACKBONE|DICT|INTERRES
    65   32   96 1    
    66   33   34 2    
    67   33   35 1    
    68   35   36 1    
    69   35   37 1    
    70   35   97 1    
    71   36   98 1    
    72   36   99 1    
    73   36  100 1    
    74   37   38 am   BACKBONE|DICT|INTERRES
    75   37  101 1    
    76   38   39 2    
    77   38   40 1    
    78   40   41 1    
    79   40   42 1    
    80   40  102 1    
    81   41  103 1    
    82   41  104 1    
    83   41  105 1    
    84   42   43 am   BACKBONE|DICT|INTERRES
    85   42  106 1    
    86   43   44 2    
    87   43   45 1    
    88   45   46 1    
    89   45   49 1    
    90   45  107 1    
    91   46   47 1    
    92   46  108 1    
    93   46  109 1    
    94   47   48 1    
    95   48  110 1    
    96   48  111 1    
    97   49   50 am   BACKBONE|DICT|INTERRES
    98   49  112 1    
    99   50   51 2    
   100   50   52 1    
   101   52   53 1    
   102   52   54 1    
   103   52  113 1    
   104   53  114 1    
   105   53  115 1    
   106   53  116 1    
   107   54   55 am   BACKBONE|DICT|INTERRES
   108   54  117 1    
   109   55   56 2    
   110   55   57 1    
   111   57   58 1    
   112   57   59 1    
   113   57  118 1    
   114   58  119 1    
   115   58  120 1    
   116   58  121 1    
   117   59   60 am   BACKBONE|DICT|INTERRES
   118   59  122 1    
   119   60   61 2    
   120   60   62 1    
   121   62   63 1    
   122   62   64 1    
   123   62  123 1    
   124   63  124 1    
   125   63  125 1    
   126   63  126 1    
   127   64   65 am   BACKBONE|DICT|INTERRES
   128   64  127 1    
   129   65   66 2    
@<TRIPOS>SUBSTRUCTURE
     1 UNK         1 GROUP             0       ****    0 ROOT    
