@<TRIPOS>MOLECULE
3R135
127   129    1
SMALL
USER_CHARGES


@<TRIPOS>ATOM
      1 CA        -76.6933   26.8092  -72.4759 C.3       0 UNK        -0.1998 
      2 C         -77.5792   25.8978  -71.6455 C.2       0 UNK         0.4909 
      3 O         -77.1388   24.8227  -71.2377 O.2       0 UNK        -0.5240 
      4 N         -78.8266   26.3168  -71.3963 N.am      1 UNK        -0.4739 
      5 CA        -79.8312   25.5451  -70.6503 C.3       1 UNK         0.0864 
      6 C6        -81.0415   26.4156  -70.2368 C.3       11 UNK        -0.0881 
      7 S7        -80.5725   27.7149  -69.0458 S.3       11 UNK        -0.2682 
      8 C8        -80.9257   29.2395  -69.9763 C.3       11 UNK         0.0289 
      9 C9        -79.8771   29.5310  -71.0412 C.ar      11 UNK        -0.0687 
     10 C10       -80.2029   29.4578  -72.3980 C.ar      11 UNK        -0.0823 
     11 C11       -79.2589   29.7955  -73.3728 C.ar      11 UNK        -0.0830 
     12 C12       -77.9785   30.2010  -72.9821 C.ar      11 UNK        -0.1021 
     13 C13       -77.6268   30.2490  -71.6268 C.ar      11 UNK        -0.0753 
     14 C14       -78.5883   29.9208  -70.6654 C.ar      11 UNK        -0.0933 
     15 C15       -76.2368   30.6823  -71.1607 C.3       11 UNK         0.0166 
     16 S16       -74.8738   30.1472  -72.2519 S.3       11 UNK        -0.2615 
     17 C17       -74.5174   31.6812  -73.1838 C.3       11 UNK        -0.0865 
     18 CA        -73.0768   31.7301  -73.7580 C.3       10 UNK         0.0862 
     19 C         -71.9960   31.8959  -72.6457 C.2       10 UNK         0.5551 
     20 N         -71.0478   30.9789  -72.4849 N.am      10 UNK        -0.7319 
     21 O         -72.0134   32.8892  -71.9225 O.2       10 UNK        -0.5018 
     22 N         -72.8467   30.6186  -74.6895 N.am      10 UNK        -0.4509 
     23 C         -71.8896   30.5728  -75.6236 C.2       10 UNK         0.4899 
     24 O         -71.1451   31.5174  -75.8902 O.2       10 UNK        -0.4839 
     25 CA        -71.7492   29.2371  -76.3790 C.3       9 UNK         0.0222 
     26 CB        -70.3686   29.0615  -77.0449 C.3       9 UNK        -0.1966 
     27 N         -72.0821   28.0706  -75.5503 N.am      9 UNK        -0.4218 
     28 C         -71.4794   27.6690  -74.4189 C.2       9 UNK         0.5020 
     29 O         -70.5366   28.2627  -73.8937 O.2       9 UNK        -0.5274 
     30 CA        -72.0430   26.4114  -73.7370 C.3       8 UNK         0.0270 
     31 CB        -73.0906   26.8148  -72.6887 C.3       8 UNK        -0.1976 
     32 N         -72.6565   25.5001  -74.7074 N.am      8 UNK        -0.4313 
     33 C         -72.0582   24.4188  -75.2277 C.2       8 UNK         0.5041 
     34 O         -70.9598   23.9979  -74.8623 O.2       8 UNK        -0.5577 
     35 CA        -72.7989   23.6900  -76.3674 C.3       7 UNK         0.0284 
     36 CB        -73.7511   22.6262  -75.7978 C.3       7 UNK        -0.1958 
     37 N         -73.5530   24.5996  -77.2348 N.am      7 UNK        -0.4454 
     38 C         -73.0027   25.5626  -77.9915 C.2       7 UNK         0.5089 
     39 O         -71.7898   25.6875  -78.1565 O.2       7 UNK        -0.5125 
     40 CA        -73.9484   26.5913  -78.6454 C.3       6 UNK         0.0408 
     41 CB        -74.0878   26.3041  -80.1487 C.3       6 UNK        -0.1791 
     42 N         -75.2873   26.6684  -78.0500 N.am      6 UNK        -0.4762 
     43 C         -75.5892   26.9090  -76.7637 C.2       6 UNK         0.5007 
     44 O         -74.7439   27.1636  -75.9046 O.2       6 UNK        -0.5032 
     45 CA        -77.0720   26.7729  -76.3530 C.3       5 UNK         0.0783 
     46 C46       -77.6992   28.1738  -76.1553 C.3       11 UNK        -0.0857 
     47 S47       -79.4165   28.0900  -75.5513 S.3       11 UNK        -0.2512 
     48 C48       -79.6414   29.7513  -74.8448 C.3       11 UNK         0.0225 
     49 N         -77.8480   25.9242  -77.2743 N.am      5 UNK        -0.4615 
     50 C         -77.6052   24.6265  -77.5061 C.2       4 UNK         0.5053 
     51 O         -76.7094   23.9923  -76.9447 O.2       4 UNK        -0.5105 
     52 CA        -78.5088   23.9357  -78.5346 C.3       4 UNK         0.0263 
     53 CB        -77.8329   22.7049  -79.1696 C.3       4 UNK        -0.1981 
     54 N         -79.7306   23.5151  -77.8580 N.am      4 UNK        -0.4224 
     55 C         -80.9651   23.9613  -78.1255 C.2       3 UNK         0.4895 
     56 O         -81.2310   24.7483  -79.0352 O.2       3 UNK        -0.5091 
     57 CA        -82.1025   23.4463  -77.2199 C.3       3 UNK         0.0250 
     58 CB        -82.8273   22.2657  -77.8870 C.3       3 UNK        -0.1996 
     59 N         -81.6490   23.0432  -75.8823 N.am      3 UNK        -0.4254 
     60 C         -81.1722   23.8934  -74.9631 C.2       2 UNK         0.5004 
     61 O         -81.1223   25.1149  -75.1240 O.2       2 UNK        -0.5226 
     62 CA        -80.6319   23.2727  -73.6689 C.3       2 UNK         0.0269 
     63 CB        -79.3883   22.4016  -73.9402 C.3       2 UNK        -0.1926 
     64 N         -80.2687   24.3483  -72.7522 N.am      2 UNK        -0.4687 
     65 C         -80.3020   24.2902  -71.4169 C.2       1 UNK         0.5165 
     66 O         -80.6732   23.2979  -70.7877 O.2       1 UNK        -0.5079 
     67 H67       -76.0495   27.3956  -71.8219 H         1 UNK         0.0900 
     68 H68       -77.2811   27.4935  -73.0856 H         1 UNK         0.0900 
     69 H69       -76.0641   26.2196  -73.1415 H         1 UNK         0.0900 
     70 H70       -79.1184   27.2324  -71.7118 H         1 UNK         0.2959 
     71 H71       -79.3521   25.1805  -69.7384 H         1 UNK         0.1079 
     72 H72       -81.5178   26.8580  -71.1139 H         1 UNK         0.0837 
     73 H73       -81.8070   25.8038  -69.7545 H         1 UNK         0.0837 
     74 H74       -81.9248   29.1793  -70.4112 H         1 UNK         0.0685 
     75 H75       -80.9532   30.0744  -69.2745 H         1 UNK         0.0685 
     76 H76       -81.1986   29.1595  -72.6984 H         1 UNK         0.1434 
     77 H77       -77.2562   30.4742  -73.7373 H         1 UNK         0.1329 
     78 H78       -78.3391   29.9764  -69.6143 H         1 UNK         0.1335 
     79 H79       -76.0368   30.2624  -70.1728 H         1 UNK         0.0680 
     80 H80       -76.2268   31.7659  -71.0344 H         1 UNK         0.0680 
     81 H81       -74.6918   32.5509  -72.5477 H         1 UNK         0.1032 
     82 H82       -75.2384   31.7661  -73.9977 H         1 UNK         0.1032 
     83 H83       -73.0129   32.6459  -74.3492 H         1 UNK         0.0461 
     84 H84       -70.3571   31.1094  -71.7634 H         1 UNK         0.3453 
     85 H85       -71.0079   30.1568  -73.0749 H         1 UNK         0.3453 
     86 H86       -73.4020   29.7920  -74.5241 H         1 UNK         0.2984 
     87 H87       -72.4956   29.2671  -77.1731 H         1 UNK         0.0554 
     88 H88       -70.3070   28.1157  -77.5838 H         1 UNK         0.0847 
     89 H89       -69.5604   29.0840  -76.3132 H         1 UNK         0.0847 
     90 H90       -70.1764   29.8568  -77.7659 H         1 UNK         0.0847 
     91 H91       -72.9290   27.5802  -75.8234 H         1 UNK         0.3141 
     92 H92       -71.2197   25.9131  -73.2211 H         1 UNK         0.0743 
     93 H93       -73.9144   27.3659  -73.1419 H         1 UNK         0.0784 
     94 H94       -73.5042   25.9433  -72.1811 H         1 UNK         0.0784 
     95 H95       -72.6522   27.4593  -71.9252 H         1 UNK         0.0784 
     96 H96       -73.5519   25.7870  -75.0877 H         1 UNK         0.3213 
     97 H97       -72.0486   23.1875  -76.9817 H         1 UNK         0.0855 
     98 H98       -74.5391   23.0725  -75.1894 H         1 UNK         0.0814 
     99 H99       -73.2126   21.9173  -75.1672 H         1 UNK         0.0814 
    100 H100      -74.2289   22.0543  -76.5933 H         1 UNK         0.0814 
    101 H101      -74.5637   24.5405  -77.1839 H         1 UNK         0.3105 
    102 H102      -73.4856   27.5722  -78.5294 H         1 UNK         0.0547 
    103 H103      -73.1106   26.2737  -80.6333 H         1 UNK         0.0837 
    104 H104      -74.5720   25.3444  -80.3335 H         1 UNK         0.0837 
    105 H105      -74.6691   27.0778  -80.6505 H         1 UNK         0.0837 
    106 H106      -76.0583   26.4708  -78.6713 H         1 UNK         0.3020 
    107 H107      -77.0740   26.2643  -75.3871 H         1 UNK         0.1245 
    108 H108      -77.1096   28.7509  -75.4400 H         1 UNK         0.0781 
    109 H109      -77.6907   28.7386  -77.0897 H         1 UNK         0.0781 
    110 H110      -79.0685   30.4831  -75.4166 H         1 UNK         0.0836 
    111 H111      -80.6881   30.0376  -74.9580 H         1 UNK         0.0836 
    112 H112      -78.6354   26.3661  -77.7284 H         1 UNK         0.3022 
    113 H113      -78.7240   24.6518  -79.3315 H         1 UNK         0.0747 
    114 H114      -78.4704   22.2548  -79.9309 H         1 UNK         0.0793 
    115 H115      -76.8950   22.9812  -79.6541 H         1 UNK         0.0793 
    116 H116      -77.6046   21.9360  -78.4292 H         1 UNK         0.0793 
    117 H117      -79.6085   22.8950  -77.0702 H         1 UNK         0.3047 
    118 H118      -82.8177   24.2637  -77.1011 H         1 UNK         0.0822 
    119 H119      -83.6855   21.9411  -77.2975 H         1 UNK         0.0807 
    120 H120      -82.1662   21.4081  -78.0211 H         1 UNK         0.0807 
    121 H121      -83.2021   22.5454  -78.8731 H         1 UNK         0.0807 
    122 H122      -81.6734   22.0548  -75.6732 H         1 UNK         0.2946 
    123 H123      -81.4257   22.6642  -73.2283 H         1 UNK         0.1144 
    124 H124      -79.6237   21.5569  -74.5883 H         1 UNK         0.0793 
    125 H125      -78.9856   21.9886  -73.0146 H         1 UNK         0.0793 
    126 H126      -78.5924   22.9743  -74.4202 H         1 UNK         0.0793 
    127 H127      -80.0297   25.2222  -73.2048 H         1 UNK         0.2896 
@<TRIPOS>BOND
     1    1    2 1    
     2    1   67 1    
     3    1   68 1    
     4    1   69 1    
     5    2    3 2    
     6    2    4 am   BACKBONE|DICT|INTERRES
     7    4    5 1    
     8    4   70 1    
     9    5    6 1    
    10    5   65 1    
    11    5   71 1    
    12    6    7 1    
    13    6   72 1    
    14    6   73 1    
    15    7    8 1    
    16    8    9 1    
    17    8   74 1    
    18    8   75 1    
    19    9   10 ar   
    20    9   14 ar   
    21   10   11 ar   
    22   10   76 1    
    23   11   12 ar   
    24   11   48 1    
    25   12   13 ar   
    26   12   77 1    
    27   13   14 ar   
    28   13   15 1    
    29   14   78 1    
    30   15   16 1    
    31   15   79 1    
    32   15   80 1    
    33   16   17 1    
    34   17   18 1    
    35   17   81 1    
    36   17   82 1    
    37   18   19 1    
    38   18   22 1    
    39   18   83 1    
    40   19   20 am   BACKBONE|DICT|INTERRES
    41   19   21 2    
    42   20   84 1    
    43   20   85 1    
    44   22   23 am   BACKBONE|DICT|INTERRES
    45   22   86 1    
    46   23   24 2    
    47   23   25 1    
    48   25   26 1    
    49   25   27 1    
    50   25   87 1    
    51   26   88 1    
    52   26   89 1    
    53   26   90 1    
    54   27   28 am   BACKBONE|DICT|INTERRES
    55   27   91 1    
    56   28   29 2    
    57   28   30 1    
    58   30   31 1    
    59   30   32 1    
    60   30   92 1    
    61   31   93 1    
    62   31   94 1    
    63   31   95 1    
    64   32   33 am   BACKBONE|DICT|INTERRES
    65   32   96 1    
    66   33   34 2    
    67   33   35 1    
    68   35   36 1    
    69   35   37 1    
    70   35   97 1    
    71   36   98 1    
    72   36   99 1    
    73   36  100 1    
    74   37   38 am   BACKBONE|DICT|INTERRES
    75   37  101 1    
    76   38   39 2    
    77   38   40 1    
    78   40   41 1    
    79   40   42 1    
    80   40  102 1    
    81   41  103 1    
    82   41  104 1    
    83   41  105 1    
    84   42   43 am   BACKBONE|DICT|INTERRES
    85   42  106 1    
    86   43   44 2    
    87   43   45 1    
    88   45   46 1    
    89   45   49 1    
    90   45  107 1    
    91   46   47 1    
    92   46  108 1    
    93   46  109 1    
    94   47   48 1    
    95   48  110 1    
    96   48  111 1    
    97   49   50 am   BACKBONE|DICT|INTERRES
    98   49  112 1    
    99   50   51 2    
   100   50   52 1    
   101   52   53 1    
   102   52   54 1    
   103   52  113 1    
   104   53  114 1    
   105   53  115 1    
   106   53  116 1    
   107   54   55 am   BACKBONE|DICT|INTERRES
   108   54  117 1    
   109   55   56 2    
   110   55   57 1    
   111   57   58 1    
   112   57   59 1    
   113   57  118 1    
   114   58  119 1    
   115   58  120 1    
   116   58  121 1    
   117   59   60 am   BACKBONE|DICT|INTERRES
   118   59  122 1    
   119   60   61 2    
   120   60   62 1    
   121   62   63 1    
   122   62   64 1    
   123   62  123 1    
   124   63  124 1    
   125   63  125 1    
   126   63  126 1    
   127   64   65 am   BACKBONE|DICT|INTERRES
   128   64  127 1    
   129   65   66 2    
@<TRIPOS>SUBSTRUCTURE
     1 UNK         1 GROUP             0       ****    0 ROOT    
