@<TRIPOS>MOLECULE
3R135
127   129    1
SMALL
USER_CHARGES


@<TRIPOS>ATOM
      1 CA        -82.7931   26.9407  -69.9614 C.3       0 UNK        -0.1998 
      2 C         -83.3303   27.1384  -71.3710 C.2       0 UNK         0.4909 
      3 O         -84.4412   26.7013  -71.6716 O.2       0 UNK        -0.5240 
      4 N         -82.5480   27.7933  -72.2387 N.am      1 UNK        -0.4739 
      5 CA        -82.8824   28.0518  -73.6458 C.3       1 UNK         0.0864 
      6 C6        -82.0649   29.2432  -74.2130 C.3       11 UNK        -0.0881 
      7 S7        -80.2630   28.9436  -74.2712 S.3       11 UNK        -0.2682 
      8 C8        -79.6724   29.8268  -72.7977 C.3       11 UNK         0.0289 
      9 C9        -78.4251   29.1546  -72.2488 C.ar      11 UNK        -0.0687 
     10 C10       -78.5454   28.0663  -71.3812 C.ar      11 UNK        -0.0823 
     11 C11       -77.4084   27.4240  -70.8862 C.ar      11 UNK        -0.0830 
     12 C12       -76.1425   27.8963  -71.2433 C.ar      11 UNK        -0.1021 
     13 C13       -76.0040   28.9784  -72.1173 C.ar      11 UNK        -0.0753 
     14 C14       -77.1540   29.5996  -72.6222 C.ar      11 UNK        -0.0933 
     15 C15       -74.6059   29.4018  -72.5562 C.3       11 UNK         0.0166 
     16 S16       -74.4108   31.2011  -72.7783 S.3       11 UNK        -0.2615 
     17 C17       -72.7860   31.2211  -73.6004 C.3       11 UNK        -0.0865 
     18 CA        -72.8953   30.9870  -75.1398 C.3       10 UNK         0.0862 
     19 C         -72.9890   32.3026  -75.9722 C.2       10 UNK         0.5551 
     20 N         -72.4608   32.3470  -77.1896 N.am      10 UNK        -0.7319 
     21 O         -73.5684   33.2898  -75.5261 O.2       10 UNK        -0.5018 
     22 N         -71.9026   30.0111  -75.6201 N.am      10 UNK        -0.4509 
     23 C         -70.5716   30.1543  -75.5394 C.2       10 UNK         0.4899 
     24 O         -70.0219   31.1643  -75.0963 O.2       10 UNK        -0.4839 
     25 CA        -69.7119   28.9690  -76.0266 C.3       9 UNK         0.0222 
     26 CB        -68.2558   29.0418  -75.5199 C.3       9 UNK        -0.1966 
     27 N         -70.2900   27.6537  -75.7233 N.am      9 UNK        -0.4218 
     28 C         -70.6398   27.1533  -74.5287 C.2       9 UNK         0.5020 
     29 O         -70.5248   27.7666  -73.4658 O.2       9 UNK        -0.5274 
     30 CA        -71.2218   25.7221  -74.5369 C.3       8 UNK         0.0270 
     31 CB        -71.6503   25.2490  -73.1349 C.3       8 UNK        -0.1976 
     32 N         -72.3546   25.5843  -75.4611 N.am      8 UNK        -0.4313 
     33 C         -72.2524   25.5075  -76.7977 C.2       8 UNK         0.5041 
     34 O         -71.1687   25.5135  -77.3849 O.2       8 UNK        -0.5577 
     35 CA        -73.5407   25.4533  -77.6408 C.3       7 UNK         0.0284 
     36 CB        -73.7799   24.0238  -78.1531 C.3       7 UNK        -0.1958 
     37 N         -74.7464   25.9266  -76.9592 N.am      7 UNK        -0.4454 
     38 C         -74.9377   27.1531  -76.4531 C.2       7 UNK         0.5089 
     39 O         -74.1183   28.0690  -76.5396 O.2       7 UNK        -0.5125 
     40 CA        -76.2508   27.3721  -75.6784 C.3       6 UNK         0.0408 
     41 CB        -77.3544   27.8309  -76.6414 C.3       6 UNK        -0.1791 
     42 N         -76.7048   26.1876  -74.9341 N.am      6 UNK        -0.4762 
     43 C         -75.9843   25.5287  -74.0097 C.2       6 UNK         0.5007 
     44 O         -74.8416   25.8494  -73.6827 O.2       6 UNK        -0.5032 
     45 CA        -76.6012   24.2441  -73.4243 C.3       5 UNK         0.0783 
     46 C46       -77.6156   24.5157  -72.2841 C.3       11 UNK        -0.0857 
     47 S47       -76.7752   24.7137  -70.6744 S.3       11 UNK        -0.2512 
     48 C48       -77.5545   26.2091  -69.9805 C.3       11 UNK         0.0225 
     49 N         -77.1852   23.4404  -74.4985 N.am      5 UNK        -0.4615 
     50 C         -76.4892   22.5811  -75.2562 C.2       4 UNK         0.5053 
     51 O         -75.3031   22.3116  -75.0691 O.2       4 UNK        -0.5105 
     52 CA        -77.2285   21.9072  -76.4268 C.3       4 UNK         0.0263 
     53 CB        -77.7553   20.5266  -76.0036 C.3       4 UNK        -0.1981 
     54 N         -78.3373   22.7048  -76.9552 N.am      4 UNK        -0.4224 
     55 C         -78.1993   23.8801  -77.5849 C.2       3 UNK         0.4895 
     56 O         -77.1130   24.4019  -77.8319 O.2       3 UNK        -0.5091 
     57 CA        -79.4958   24.6229  -77.9515 C.3       3 UNK         0.0250 
     58 CB        -79.9901   24.1886  -79.3403 C.3       3 UNK        -0.1996 
     59 N         -80.5747   24.4557  -76.9695 N.am      3 UNK        -0.4254 
     60 C         -80.4944   24.8045  -75.6778 C.2       2 UNK         0.5004 
     61 O         -79.4753   25.2574  -75.1493 O.2       2 UNK        -0.5226 
     62 CA        -81.7361   24.5525  -74.8136 C.3       2 UNK         0.0269 
     63 CB        -81.4807   23.3965  -73.8324 C.3       2 UNK        -0.1926 
     64 N         -82.0605   25.7595  -74.0588 N.am      2 UNK        -0.4687 
     65 C         -82.7657   26.7936  -74.5395 C.2       1 UNK         0.5165 
     66 O         -83.3111   26.7859  -75.6447 O.2       1 UNK        -0.5079 
     67 H67       -81.8299   27.4297  -69.8175 H         1 UNK         0.0900 
     68 H68       -82.6698   25.8783  -69.7528 H         1 UNK         0.0900 
     69 H69       -83.4918   27.3517  -69.2333 H         1 UNK         0.0900 
     70 H70       -81.6455   28.1321  -71.9431 H         1 UNK         0.2959 
     71 H71       -83.9352   28.3420  -73.6813 H         1 UNK         0.1079 
     72 H72       -82.3987   29.4756  -75.2261 H         1 UNK         0.0837 
     73 H73       -82.2663   30.1445  -73.6318 H         1 UNK         0.0837 
     74 H74       -79.4691   30.8668  -73.0576 H         1 UNK         0.0685 
     75 H75       -80.4451   29.8475  -72.0283 H         1 UNK         0.0685 
     76 H76       -79.5264   27.7064  -71.1071 H         1 UNK         0.1434 
     77 H77       -75.2624   27.3897  -70.8707 H         1 UNK         0.1329 
     78 H78       -77.0641   30.4210  -73.3192 H         1 UNK         0.1335 
     79 H79       -73.8642   29.0658  -71.8295 H         1 UNK         0.0680 
     80 H80       -74.3706   28.8917  -73.4911 H         1 UNK         0.0680 
     81 H81       -72.1707   30.4517  -73.1300 H         1 UNK         0.1032 
     82 H82       -72.2797   32.1618  -73.3756 H         1 UNK         0.1032 
     83 H83       -73.8459   30.4914  -75.3377 H         1 UNK         0.0461 
     84 H84       -72.5296   33.1953  -77.7293 H         1 UNK         0.3453 
     85 H85       -71.9939   31.5399  -77.5706 H         1 UNK         0.3453 
     86 H86       -72.2929   29.1626  -76.0141 H         1 UNK         0.2984 
     87 H87       -69.6860   29.0437  -77.1145 H         1 UNK         0.0554 
     88 H88       -67.6605   28.2117  -75.9000 H         1 UNK         0.0847 
     89 H89       -68.2070   29.0184  -74.4306 H         1 UNK         0.0847 
     90 H90       -67.7703   29.9618  -75.8478 H         1 UNK         0.0847 
     91 H91       -70.4508   27.0420  -76.5218 H         1 UNK         0.3141 
     92 H92       -70.4233   25.0573  -74.8733 H         1 UNK         0.0743 
     93 H93       -72.3989   25.9103  -72.6972 H         1 UNK         0.0784 
     94 H94       -72.0673   24.2422  -73.1631 H         1 UNK         0.0784 
     95 H95       -70.7987   25.2287  -72.4537 H         1 UNK         0.0784 
     96 H96       -73.2786   25.6300  -75.0421 H         1 UNK         0.3213 
     97 H97       -73.3826   26.1037  -78.5034 H         1 UNK         0.0855 
     98 H98       -73.9957   23.3346  -77.3360 H         1 UNK         0.0814 
     99 H99       -72.9030   23.6429  -78.6788 H         1 UNK         0.0814 
    100 H100      -74.6144   23.9868  -78.8534 H         1 UNK         0.0814 
    101 H101      -75.5237   25.2749  -76.9138 H         1 UNK         0.3105 
    102 H102      -76.0842   28.1662  -74.9508 H         1 UNK         0.0547 
    103 H103      -77.1100   28.8009  -77.0758 H         1 UNK         0.0837 
    104 H104      -77.4854   27.1308  -77.4659 H         1 UNK         0.0837 
    105 H105      -78.3125   27.9326  -76.1348 H         1 UNK         0.0837 
    106 H106      -77.6522   25.8678  -75.1213 H         1 UNK         0.3020 
    107 H107      -75.7746   23.6690  -72.9989 H         1 UNK         0.1245 
    108 H108      -78.2894   23.6648  -72.1742 H         1 UNK         0.0781 
    109 H109      -78.2566   25.3694  -72.5113 H         1 UNK         0.0781 
    110 H110      -77.0971   26.4298  -69.0152 H         1 UNK         0.0836 
    111 H111      -78.6051   25.9941  -69.7793 H         1 UNK         0.0836 
    112 H112      -78.1369   23.6694  -74.7565 H         1 UNK         0.3022 
    113 H113      -76.5042   21.7667  -77.2322 H         1 UNK         0.0747 
    114 H114      -78.2095   20.0000  -76.8432 H         1 UNK         0.0793 
    115 H115      -76.9453   19.8983  -75.6300 H         1 UNK         0.0793 
    116 H116      -78.5002   20.6033  -75.2105 H         1 UNK         0.0793 
    117 H117      -79.2702   22.3520  -76.7995 H         1 UNK         0.3047 
    118 H118      -79.2612   25.6876  -77.9941 H         1 UNK         0.0822 
    119 H119      -80.8489   24.7797  -79.6592 H         1 UNK         0.0807 
    120 H120      -80.2798   23.1371  -79.3576 H         1 UNK         0.0807 
    121 H121      -79.2104   24.3241  -80.0914 H         1 UNK         0.0807 
    122 H122      -81.4459   24.0834  -77.3202 H         1 UNK         0.2946 
    123 H123      -82.5816   24.2866  -75.4526 H         1 UNK         0.1144 
    124 H124      -82.3607   23.1963  -73.2207 H         1 UNK         0.0793 
    125 H125      -80.6490   23.6105  -73.1600 H         1 UNK         0.0793 
    126 H126      -81.2414   22.4754  -74.3654 H         1 UNK         0.0793 
    127 H127      -81.6042   25.8732  -73.1663 H         1 UNK         0.2896 
@<TRIPOS>BOND
     1    1    2 1    
     2    1   67 1    
     3    1   68 1    
     4    1   69 1    
     5    2    3 2    
     6    2    4 am   BACKBONE|DICT|INTERRES
     7    4    5 1    
     8    4   70 1    
     9    5    6 1    
    10    5   65 1    
    11    5   71 1    
    12    6    7 1    
    13    6   72 1    
    14    6   73 1    
    15    7    8 1    
    16    8    9 1    
    17    8   74 1    
    18    8   75 1    
    19    9   10 ar   
    20    9   14 ar   
    21   10   11 ar   
    22   10   76 1    
    23   11   12 ar   
    24   11   48 1    
    25   12   13 ar   
    26   12   77 1    
    27   13   14 ar   
    28   13   15 1    
    29   14   78 1    
    30   15   16 1    
    31   15   79 1    
    32   15   80 1    
    33   16   17 1    
    34   17   18 1    
    35   17   81 1    
    36   17   82 1    
    37   18   19 1    
    38   18   22 1    
    39   18   83 1    
    40   19   20 am   BACKBONE|DICT|INTERRES
    41   19   21 2    
    42   20   84 1    
    43   20   85 1    
    44   22   23 am   BACKBONE|DICT|INTERRES
    45   22   86 1    
    46   23   24 2    
    47   23   25 1    
    48   25   26 1    
    49   25   27 1    
    50   25   87 1    
    51   26   88 1    
    52   26   89 1    
    53   26   90 1    
    54   27   28 am   BACKBONE|DICT|INTERRES
    55   27   91 1    
    56   28   29 2    
    57   28   30 1    
    58   30   31 1    
    59   30   32 1    
    60   30   92 1    
    61   31   93 1    
    62   31   94 1    
    63   31   95 1    
    64   32   33 am   BACKBONE|DICT|INTERRES
    65   32   96 1    
    66   33   34 2    
    67   33   35 1    
    68   35   36 1    
    69   35   37 1    
    70   35   97 1    
    71   36   98 1    
    72   36   99 1    
    73   36  100 1    
    74   37   38 am   BACKBONE|DICT|INTERRES
    75   37  101 1    
    76   38   39 2    
    77   38   40 1    
    78   40   41 1    
    79   40   42 1    
    80   40  102 1    
    81   41  103 1    
    82   41  104 1    
    83   41  105 1    
    84   42   43 am   BACKBONE|DICT|INTERRES
    85   42  106 1    
    86   43   44 2    
    87   43   45 1    
    88   45   46 1    
    89   45   49 1    
    90   45  107 1    
    91   46   47 1    
    92   46  108 1    
    93   46  109 1    
    94   47   48 1    
    95   48  110 1    
    96   48  111 1    
    97   49   50 am   BACKBONE|DICT|INTERRES
    98   49  112 1    
    99   50   51 2    
   100   50   52 1    
   101   52   53 1    
   102   52   54 1    
   103   52  113 1    
   104   53  114 1    
   105   53  115 1    
   106   53  116 1    
   107   54   55 am   BACKBONE|DICT|INTERRES
   108   54  117 1    
   109   55   56 2    
   110   55   57 1    
   111   57   58 1    
   112   57   59 1    
   113   57  118 1    
   114   58  119 1    
   115   58  120 1    
   116   58  121 1    
   117   59   60 am   BACKBONE|DICT|INTERRES
   118   59  122 1    
   119   60   61 2    
   120   60   62 1    
   121   62   63 1    
   122   62   64 1    
   123   62  123 1    
   124   63  124 1    
   125   63  125 1    
   126   63  126 1    
   127   64   65 am   BACKBONE|DICT|INTERRES
   128   64  127 1    
   129   65   66 2    
@<TRIPOS>SUBSTRUCTURE
     1 UNK         1 GROUP             0       ****    0 ROOT    
