@<TRIPOS>MOLECULE
3R135
127   129    1
SMALL
USER_CHARGES


@<TRIPOS>ATOM
      1 CA        -84.5575   24.2709  -72.7864 C.3       0 UNK        -0.1998 
      2 C         -83.9879   25.5299  -73.4234 C.2       0 UNK         0.4909 
      3 O         -84.6344   26.1240  -74.2874 O.2       0 UNK        -0.5240 
      4 N         -82.7874   25.9410  -72.9950 N.am      1 UNK        -0.4739 
      5 CA        -82.0376   27.0750  -73.5473 C.3       1 UNK         0.0864 
      6 C6        -81.1649   27.7532  -72.4561 C.3       11 UNK        -0.0881 
      7 S7        -81.0210   29.5556  -72.7128 S.3       11 UNK        -0.2682 
      8 C8        -79.9952   30.0457  -71.2912 C.3       11 UNK         0.0289 
      9 C9        -78.5703   29.5377  -71.4387 C.ar      11 UNK        -0.0687 
     10 C10       -78.1605   28.3824  -70.7676 C.ar      11 UNK        -0.0823 
     11 C11       -76.8684   27.8818  -70.9452 C.ar      11 UNK        -0.0830 
     12 C12       -75.9775   28.5551  -71.7858 C.ar      11 UNK        -0.1021 
     13 C13       -76.3700   29.7238  -72.4455 C.ar      11 UNK        -0.0753 
     14 C14       -77.6677   30.2111  -72.2670 C.ar      11 UNK        -0.0933 
     15 C15       -75.4115   30.4388  -73.3848 C.3       11 UNK         0.0166 
     16 S16       -74.4935   31.7714  -72.5491 S.3       11 UNK        -0.2615 
     17 C17       -73.1689   30.8400  -71.7031 C.3       11 UNK        -0.0865 
     18 CA        -71.7480   31.1603  -72.2396 C.3       10 UNK         0.0862 
     19 C         -70.6728   30.4182  -71.3902 C.2       10 UNK         0.5551 
     20 N         -69.9255   29.4689  -71.9405 N.am      10 UNK        -0.7319 
     21 O         -70.5169   30.7128  -70.2077 O.2       10 UNK        -0.5018 
     22 N         -71.6469   30.9554  -73.6963 N.am      10 UNK        -0.4509 
     23 C         -70.6562   31.4020  -74.4776 C.2       10 UNK         0.4899 
     24 O         -69.6978   32.0515  -74.0561 O.2       10 UNK        -0.4839 
     25 CA        -70.7512   31.0531  -75.9785 C.3       9 UNK         0.0222 
     26 CB        -69.5368   31.5570  -76.7819 C.3       9 UNK        -0.1966 
     27 N         -70.9096   29.6127  -76.2119 N.am      9 UNK        -0.4218 
     28 C         -72.0567   28.9339  -76.0879 C.2       9 UNK         0.5020 
     29 O         -73.1139   29.4513  -75.7223 O.2       9 UNK        -0.5274 
     30 CA        -71.9958   27.4209  -76.3579 C.3       8 UNK         0.0270 
     31 CB        -71.5452   26.6724  -75.0924 C.3       8 UNK        -0.1976 
     32 N         -73.2898   26.8843  -76.7846 N.am      8 UNK        -0.4313 
     33 C         -73.9060   27.1815  -77.9391 C.2       8 UNK         0.5041 
     34 O         -73.4142   27.9044  -78.8089 O.2       8 UNK        -0.5577 
     35 CA        -75.3008   26.5558  -78.1567 C.3       7 UNK         0.0284 
     36 CB        -75.7526   26.5608  -79.6322 C.3       7 UNK        -0.1958 
     37 N         -75.4237   25.2126  -77.5787 N.am      7 UNK        -0.4454 
     38 C         -74.6723   24.1358  -77.8596 C.2       7 UNK         0.5089 
     39 O         -73.8236   24.1095  -78.7520 O.2       7 UNK        -0.5125 
     40 CA        -74.8919   22.8744  -76.9982 C.3       6 UNK         0.0408 
     41 CB        -73.5691   22.1288  -76.7231 C.3       6 UNK        -0.1791 
     42 N         -75.6182   23.1010  -75.7406 N.am      6 UNK        -0.4762 
     43 C         -75.2645   23.8876  -74.7086 C.2       6 UNK         0.5007 
     44 O         -74.2597   24.6014  -74.7189 O.2       6 UNK        -0.5032 
     45 CA        -76.2105   23.8984  -73.4869 C.3       5 UNK         0.0783 
     46 C46       -76.0976   25.2059  -72.6643 C.3       11 UNK        -0.0857 
     47 S47       -77.0694   25.1321  -71.1221 S.3       11 UNK        -0.2512 
     48 C48       -76.4463   26.5997  -70.2455 C.3       11 UNK         0.0225 
     49 N         -77.5840   23.6612  -73.9379 N.am      5 UNK        -0.4615 
     50 C         -78.3295   22.5855  -73.6556 C.2       4 UNK         0.5053 
     51 O         -77.9707   21.6790  -72.9043 O.2       4 UNK        -0.5105 
     52 CA        -79.6983   22.4816  -74.3588 C.3       4 UNK         0.0263 
     53 CB        -80.8094   22.9936  -73.4299 C.3       4 UNK        -0.1981 
     54 N         -79.7529   23.2068  -75.6348 N.am      4 UNK        -0.4224 
     55 C         -78.9981   22.9115  -76.7057 C.2       3 UNK         0.4895 
     56 O         -78.2574   21.9296  -76.7612 O.2       3 UNK        -0.5091 
     57 CA        -79.0069   23.8940  -77.8918 C.3       3 UNK         0.0250 
     58 CB        -79.9159   23.3707  -79.0144 C.3       3 UNK        -0.1996 
     59 N         -79.4039   25.2634  -77.5516 N.am      3 UNK        -0.4254 
     60 C         -78.8145   26.0647  -76.6519 C.2       2 UNK         0.5004 
     61 O         -77.8273   25.7397  -75.9894 O.2       2 UNK        -0.5226 
     62 CA        -79.4553   27.4488  -76.4302 C.3       2 UNK         0.0269 
     63 CB        -80.2578   27.9541  -77.6490 C.3       2 UNK        -0.1926 
     64 N         -80.2931   27.5221  -75.2241 N.am      2 UNK        -0.4687 
     65 C         -81.2379   26.6626  -74.8093 C.2       1 UNK         0.5165 
     66 O         -81.4874   25.5963  -75.3793 O.2       1 UNK        -0.5079 
     67 H67       -83.8904   23.8580  -72.0298 H         1 UNK         0.0900 
     68 H68       -84.7194   23.5078  -73.5471 H         1 UNK         0.0900 
     69 H69       -85.5141   24.4892  -72.3125 H         1 UNK         0.0900 
     70 H70       -82.3050   25.3988  -72.2934 H         1 UNK         0.2959 
     71 H71       -82.7717   27.8070  -73.8923 H         1 UNK         0.1079 
     72 H72       -81.6172   27.6163  -71.4721 H         1 UNK         0.0837 
     73 H73       -80.1761   27.2944  -72.3937 H         1 UNK         0.0837 
     74 H74       -79.9887   31.1342  -71.2174 H         1 UNK         0.0685 
     75 H75       -80.4471   29.6788  -70.3682 H         1 UNK         0.0685 
     76 H76       -78.8556   27.8542  -70.1292 H         1 UNK         0.1434 
     77 H77       -74.9847   28.1563  -71.9391 H         1 UNK         0.1329 
     78 H78       -77.9827   31.1046  -72.7886 H         1 UNK         0.1335 
     79 H79       -75.9652   30.8649  -74.2227 H         1 UNK         0.0680 
     80 H80       -74.7152   29.7220  -73.8165 H         1 UNK         0.0680 
     81 H81       -73.3589   29.7694  -71.7760 H         1 UNK         0.1032 
     82 H82       -73.2354   31.0800  -70.6400 H         1 UNK         0.1032 
     83 H83       -71.5733   32.2241  -72.0672 H         1 UNK         0.0461 
     84 H84       -70.0383   29.2326  -72.9122 H         1 UNK         0.3453 
     85 H85       -69.2317   28.9988  -71.3809 H         1 UNK         0.3453 
     86 H86       -72.3990   30.4386  -74.1404 H         1 UNK         0.2984 
     87 H87       -71.6335   31.5670  -76.3662 H         1 UNK         0.0554 
     88 H88       -69.6502   31.3495  -77.8461 H         1 UNK         0.0847 
     89 H89       -68.6081   31.0941  -76.4459 H         1 UNK         0.0847 
     90 H90       -69.4190   32.6365  -76.6777 H         1 UNK         0.0847 
     91 H91       -70.0749   29.1073  -76.4740 H         1 UNK         0.3141 
     92 H92       -71.2746   27.2360  -77.1568 H         1 UNK         0.0743 
     93 H93       -72.2410   26.8249  -74.2657 H         1 UNK         0.0784 
     94 H94       -71.4736   25.5991  -75.2714 H         1 UNK         0.0784 
     95 H95       -70.5629   27.0106  -74.7603 H         1 UNK         0.0784 
     96 H96       -73.7594   26.2695  -76.1299 H         1 UNK         0.3213 
     97 H97       -75.9941   27.1889  -77.6013 H         1 UNK         0.0855 
     98 H98       -75.7874   27.5769  -80.0269 H         1 UNK         0.0814 
     99 H99       -76.7511   26.1374  -79.7420 H         1 UNK         0.0814 
    100 H100      -75.0730   25.9899  -80.2654 H         1 UNK         0.0814 
    101 H101      -76.1065   25.1334  -76.8307 H         1 UNK         0.3105 
    102 H102      -75.5247   22.2146  -77.5933 H         1 UNK         0.0547 
    103 H103      -73.0916   21.8171  -77.6528 H         1 UNK         0.0837 
    104 H104      -72.8559   22.7560  -76.1872 H         1 UNK         0.0837 
    105 H105      -73.7357   21.2286  -76.1318 H         1 UNK         0.0837 
    106 H106      -76.4913   22.5911  -75.6637 H         1 UNK         0.3020 
    107 H107      -75.8759   23.0746  -72.8525 H         1 UNK         0.1245 
    108 H108      -76.4355   26.0588  -73.2564 H         1 UNK         0.0781 
    109 H109      -75.0587   25.4043  -72.3940 H         1 UNK         0.0781 
    110 H110      -75.3601   26.5428  -70.1577 H         1 UNK         0.0836 
    111 H111      -76.8341   26.5945  -69.2258 H         1 UNK         0.0836 
    112 H112      -77.9401   24.3531  -74.5909 H         1 UNK         0.3022 
    113 H113      -79.8839   21.4263  -74.5690 H         1 UNK         0.0747 
    114 H114      -81.7881   22.9344  -73.9065 H         1 UNK         0.0793 
    115 H115      -80.8554   22.4017  -72.5147 H         1 UNK         0.0793 
    116 H116      -80.6357   24.0295  -73.1386 H         1 UNK         0.0793 
    117 H117      -80.3435   24.0347  -75.6653 H         1 UNK         0.3047 
    118 H118      -77.9859   23.9400  -78.2754 H         1 UNK         0.0822 
    119 H119      -79.8514   23.9982  -79.9036 H         1 UNK         0.0807 
    120 H120      -80.9606   23.3335  -78.7027 H         1 UNK         0.0807 
    121 H121      -79.6283   22.3612  -79.3121 H         1 UNK         0.0807 
    122 H122      -80.2357   25.6108  -78.0066 H         1 UNK         0.2946 
    123 H123      -78.6228   28.1374  -76.2748 H         1 UNK         0.1144 
    124 H124      -79.6661   27.9003  -78.5643 H         1 UNK         0.0793 
    125 H125      -80.5442   28.9979  -77.5185 H         1 UNK         0.0793 
    126 H126      -81.1739   27.3839  -77.8073 H         1 UNK         0.0793 
    127 H127      -80.1481   28.3436  -74.6499 H         1 UNK         0.2896 
@<TRIPOS>BOND
     1    1    2 1    
     2    1   67 1    
     3    1   68 1    
     4    1   69 1    
     5    2    3 2    
     6    2    4 am   BACKBONE|DICT|INTERRES
     7    4    5 1    
     8    4   70 1    
     9    5    6 1    
    10    5   65 1    
    11    5   71 1    
    12    6    7 1    
    13    6   72 1    
    14    6   73 1    
    15    7    8 1    
    16    8    9 1    
    17    8   74 1    
    18    8   75 1    
    19    9   10 ar   
    20    9   14 ar   
    21   10   11 ar   
    22   10   76 1    
    23   11   12 ar   
    24   11   48 1    
    25   12   13 ar   
    26   12   77 1    
    27   13   14 ar   
    28   13   15 1    
    29   14   78 1    
    30   15   16 1    
    31   15   79 1    
    32   15   80 1    
    33   16   17 1    
    34   17   18 1    
    35   17   81 1    
    36   17   82 1    
    37   18   19 1    
    38   18   22 1    
    39   18   83 1    
    40   19   20 am   BACKBONE|DICT|INTERRES
    41   19   21 2    
    42   20   84 1    
    43   20   85 1    
    44   22   23 am   BACKBONE|DICT|INTERRES
    45   22   86 1    
    46   23   24 2    
    47   23   25 1    
    48   25   26 1    
    49   25   27 1    
    50   25   87 1    
    51   26   88 1    
    52   26   89 1    
    53   26   90 1    
    54   27   28 am   BACKBONE|DICT|INTERRES
    55   27   91 1    
    56   28   29 2    
    57   28   30 1    
    58   30   31 1    
    59   30   32 1    
    60   30   92 1    
    61   31   93 1    
    62   31   94 1    
    63   31   95 1    
    64   32   33 am   BACKBONE|DICT|INTERRES
    65   32   96 1    
    66   33   34 2    
    67   33   35 1    
    68   35   36 1    
    69   35   37 1    
    70   35   97 1    
    71   36   98 1    
    72   36   99 1    
    73   36  100 1    
    74   37   38 am   BACKBONE|DICT|INTERRES
    75   37  101 1    
    76   38   39 2    
    77   38   40 1    
    78   40   41 1    
    79   40   42 1    
    80   40  102 1    
    81   41  103 1    
    82   41  104 1    
    83   41  105 1    
    84   42   43 am   BACKBONE|DICT|INTERRES
    85   42  106 1    
    86   43   44 2    
    87   43   45 1    
    88   45   46 1    
    89   45   49 1    
    90   45  107 1    
    91   46   47 1    
    92   46  108 1    
    93   46  109 1    
    94   47   48 1    
    95   48  110 1    
    96   48  111 1    
    97   49   50 am   BACKBONE|DICT|INTERRES
    98   49  112 1    
    99   50   51 2    
   100   50   52 1    
   101   52   53 1    
   102   52   54 1    
   103   52  113 1    
   104   53  114 1    
   105   53  115 1    
   106   53  116 1    
   107   54   55 am   BACKBONE|DICT|INTERRES
   108   54  117 1    
   109   55   56 2    
   110   55   57 1    
   111   57   58 1    
   112   57   59 1    
   113   57  118 1    
   114   58  119 1    
   115   58  120 1    
   116   58  121 1    
   117   59   60 am   BACKBONE|DICT|INTERRES
   118   59  122 1    
   119   60   61 2    
   120   60   62 1    
   121   62   63 1    
   122   62   64 1    
   123   62  123 1    
   124   63  124 1    
   125   63  125 1    
   126   63  126 1    
   127   64   65 am   BACKBONE|DICT|INTERRES
   128   64  127 1    
   129   65   66 2    
@<TRIPOS>SUBSTRUCTURE
     1 UNK         1 GROUP             0       ****    0 ROOT    
