@<TRIPOS>MOLECULE
3R135
127   129    1
SMALL
USER_CHARGES


@<TRIPOS>ATOM
      1 CA        -86.0013   27.5598  -74.3407 C.3       0 UNK        -0.1998 
      2 C         -84.6258   27.8908  -74.9000 C.2       0 UNK         0.4909 
      3 O         -84.5286   28.4958  -75.9681 O.2       0 UNK        -0.5240 
      4 N         -83.5621   27.5001  -74.1855 N.am      1 UNK        -0.4739 
      5 CA        -82.1620   27.7295  -74.5711 C.3       1 UNK         0.0864 
      6 C6        -81.1999   27.5398  -73.3725 C.3       11 UNK        -0.0881 
      7 S7        -81.4787   28.8038  -72.0876 S.3       11 UNK        -0.2682 
      8 C8        -80.1200   29.9769  -72.4405 C.3       11 UNK         0.0289 
      9 C9        -78.7666   29.6616  -71.7943 C.ar      11 UNK        -0.0687 
     10 C10       -78.5008   28.4667  -71.1107 C.ar      11 UNK        -0.0823 
     11 C11       -77.2609   28.2509  -70.5012 C.ar      11 UNK        -0.0830 
     12 C12       -76.2753   29.2365  -70.5741 C.ar      11 UNK        -0.1021 
     13 C13       -76.5155   30.4261  -71.2652 C.ar      11 UNK        -0.0753 
     14 C14       -77.7576   30.6279  -71.8754 C.ar      11 UNK        -0.0933 
     15 C15       -75.4468   31.5078  -71.3256 C.3       11 UNK         0.0166 
     16 S16       -74.2716   31.2238  -72.6843 S.3       11 UNK        -0.2615 
     17 C17       -73.2210   29.9026  -71.9843 C.3       11 UNK        -0.0865 
     18 CA        -71.8595   29.7725  -72.7169 C.3       10 UNK         0.0862 
     19 C         -70.9174   28.7449  -72.0225 C.2       10 UNK         0.5551 
     20 N         -70.2474   27.8524  -72.7439 N.am      10 UNK        -0.7319 
     21 O         -70.7772   28.7658  -70.8021 O.2       10 UNK        -0.5018 
     22 N         -72.0532   29.4935  -74.1457 N.am      10 UNK        -0.4509 
     23 C         -71.3790   30.0681  -75.1462 C.2       10 UNK         0.4899 
     24 O         -70.5290   30.9466  -74.9883 O.2       10 UNK        -0.4839 
     25 CA        -71.7154   29.5654  -76.5627 C.3       9 UNK         0.0222 
     26 CB        -70.6793   30.0026  -77.6200 C.3       9 UNK        -0.1966 
     27 N         -71.9384   28.1156  -76.6250 N.am      9 UNK        -0.4218 
     28 C         -71.0715   27.1403  -76.3046 C.2       9 UNK         0.5020 
     29 O         -69.9484   27.3584  -75.8471 O.2       9 UNK        -0.5274 
     30 CA        -71.5152   25.6729  -76.4971 C.3       8 UNK         0.0270 
     31 CB        -71.2854   24.8563  -75.2134 C.3       8 UNK        -0.1976 
     32 N         -72.9122   25.5207  -76.9120 N.am      8 UNK        -0.4313 
     33 C         -73.3924   25.7638  -78.1383 C.2       8 UNK         0.5041 
     34 O         -72.6875   26.0554  -79.1045 O.2       8 UNK        -0.5577 
     35 CA        -74.9224   25.7443  -78.2963 C.3       7 UNK         0.0284 
     36 CB        -75.4117   24.3460  -78.6953 C.3       7 UNK        -0.1958 
     37 N         -75.6264   26.2112  -77.0931 N.am      7 UNK        -0.4454 
     38 C         -75.5704   27.4736  -76.6408 C.2       7 UNK         0.5089 
     39 O         -74.9701   28.3777  -77.2221 O.2       7 UNK        -0.5125 
     40 CA        -76.2357   27.7675  -75.2869 C.3       6 UNK         0.0408 
     41 CB        -77.7448   27.9838  -75.4394 C.3       6 UNK        -0.1791 
     42 N         -75.9775   26.7178  -74.3003 N.am      6 UNK        -0.4762 
     43 C         -74.7799   26.5171  -73.7344 C.2       6 UNK         0.5007 
     44 O         -73.7891   27.2042  -73.9839 O.2       6 UNK        -0.5032 
     45 CA        -74.6380   25.3293  -72.7629 C.3       5 UNK         0.0783 
     46 C46       -74.9679   25.7261  -71.2967 C.3       11 UNK        -0.0857 
     47 S47       -76.7386   25.5583  -70.8562 S.3       11 UNK        -0.2512 
     48 C48       -77.0055   26.9633  -69.7352 C.3       11 UNK         0.0225 
     49 N         -75.3754   24.1335  -73.1769 N.am      5 UNK        -0.4615 
     50 C         -75.2869   23.4746  -74.3365 C.2       4 UNK         0.5053 
     51 O         -74.5318   23.7988  -75.2533 O.2       4 UNK        -0.5105 
     52 CA        -76.1940   22.2355  -74.4924 C.3       4 UNK         0.0263 
     53 CB        -77.1144   21.9726  -73.2770 C.3       4 UNK        -0.1981 
     54 N         -77.0073   22.2352  -75.7135 N.am      4 UNK        -0.4224 
     55 C         -77.7885   23.2161  -76.1918 C.2       3 UNK         0.4895 
     56 O         -77.7866   24.3741  -75.7652 O.2       3 UNK        -0.5091 
     57 CA        -78.7032   22.8332  -77.3788 C.3       3 UNK         0.0250 
     58 CB        -79.1303   21.3459  -77.3709 C.3       3 UNK        -0.1996 
     59 N         -79.8871   23.6942  -77.5067 N.am      3 UNK        -0.4254 
     60 C         -80.8631   23.8706  -76.6034 C.2       2 UNK         0.5004 
     61 O         -80.9009   23.3304  -75.4946 O.2       2 UNK        -0.5226 
     62 CA        -82.0352   24.7639  -77.0386 C.3       2 UNK         0.0269 
     63 CB        -83.2728   23.9128  -77.3691 C.3       2 UNK        -0.1926 
     64 N         -82.3759   25.7152  -75.9824 N.am      2 UNK        -0.4687 
     65 C         -81.7197   26.8637  -75.7699 C.2       1 UNK         0.5165 
     66 O         -80.8042   27.2611  -76.4909 O.2       1 UNK        -0.5079 
     67 H67       -86.5499   26.9313  -75.0417 H         1 UNK         0.0900 
     68 H68       -85.9387   27.0323  -73.3891 H         1 UNK         0.0900 
     69 H69       -86.5722   28.4746  -74.1838 H         1 UNK         0.0900 
     70 H70       -83.7010   27.0301  -73.3021 H         1 UNK         0.2959 
     71 H71       -82.0783   28.7659  -74.9070 H         1 UNK         0.1079 
     72 H72       -80.1577   27.5831  -73.6897 H         1 UNK         0.0837 
     73 H73       -81.3315   26.5524  -72.9261 H         1 UNK         0.0837 
     74 H74       -80.4431   30.9585  -72.0907 H         1 UNK         0.0685 
     75 H75       -79.9917   30.0673  -73.5202 H         1 UNK         0.0685 
     76 H76       -79.2533   27.6954  -71.0342 H         1 UNK         0.1434 
     77 H77       -75.3224   29.0812  -70.0877 H         1 UNK         0.1329 
     78 H78       -77.9465   31.5534  -72.4024 H         1 UNK         0.1335 
     79 H79       -74.9133   31.5691  -70.3759 H         1 UNK         0.0680 
     80 H80       -75.9138   32.4831  -71.4705 H         1 UNK         0.0680 
     81 H81       -73.7687   28.9612  -72.0263 H         1 UNK         0.1032 
     82 H82       -73.0592   30.1173  -70.9265 H         1 UNK         0.1032 
     83 H83       -71.3534   30.7335  -72.6106 H         1 UNK         0.0461 
     84 H84       -69.6364   27.2024  -72.2765 H         1 UNK         0.3453 
     85 H85       -70.3142   27.8452  -73.7535 H         1 UNK         0.3453 
     86 H86       -72.7059   28.7403  -74.3472 H         1 UNK         0.2984 
     87 H87       -72.6678   30.0273  -76.8263 H         1 UNK         0.0554 
     88 H88       -70.6046   31.0896  -77.6692 H         1 UNK         0.0847 
     89 H89       -70.9561   29.6533  -78.6147 H         1 UNK         0.0847 
     90 H90       -69.6839   29.6185  -77.3942 H         1 UNK         0.0847 
     91 H91       -72.8606   27.8429  -76.9435 H         1 UNK         0.3141 
     92 H92       -70.8830   25.2513  -77.2811 H         1 UNK         0.0743 
     93 H93       -70.2282   24.8354  -74.9455 H         1 UNK         0.0784 
     94 H94       -71.8245   25.2814  -74.3677 H         1 UNK         0.0784 
     95 H95       -71.6078   23.8218  -75.3341 H         1 UNK         0.0784 
     96 H96       -73.5643   25.1945  -76.2027 H         1 UNK         0.3213 
     97 H97       -75.1690   26.4286  -79.1113 H         1 UNK         0.0855 
     98 H98       -75.2784   23.6220  -77.8912 H         1 UNK         0.0814 
     99 H99       -74.8642   23.9735  -79.5623 H         1 UNK         0.0814 
    100 H100      -76.4641   24.3718  -78.9715 H         1 UNK         0.0814 
    101 H101      -76.1371   25.5246  -76.5476 H         1 UNK         0.3105 
    102 H102      -75.8085   28.6993  -74.9080 H         1 UNK         0.0547 
    103 H103      -78.1729   28.3651  -74.5138 H         1 UNK         0.0837 
    104 H104      -78.2610   27.0600  -75.7012 H         1 UNK         0.0837 
    105 H105      -77.9633   28.7140  -76.2197 H         1 UNK         0.0837 
    106 H106      -76.7329   26.0800  -74.0876 H         1 UNK         0.3020 
    107 H107      -73.5815   25.0565  -72.7911 H         1 UNK         0.1245 
    108 H108      -74.6176   26.7352  -71.0717 H         1 UNK         0.0781 
    109 H109      -74.4134   25.0739  -70.6203 H         1 UNK         0.0781 
    110 H110      -76.1546   27.0652  -69.0597 H         1 UNK         0.0836 
    111 H111      -77.8680   26.7471  -69.1031 H         1 UNK         0.0836 
    112 H112      -76.0509   23.8058  -72.5013 H         1 UNK         0.3022 
    113 H113      -75.5149   21.3861  -74.5796 H         1 UNK         0.0747 
    114 H114      -77.6913   21.0580  -73.4163 H         1 UNK         0.0793 
    115 H115      -76.5421   21.8420  -72.3574 H         1 UNK         0.0793 
    116 H116      -77.8268   22.7847  -73.1220 H         1 UNK         0.0793 
    117 H117      -77.0427   21.3483  -76.1953 H         1 UNK         0.3047 
    118 H118      -78.1190   22.9944  -78.2836 H         1 UNK         0.0822 
    119 H119      -79.8375   21.1354  -78.1734 H         1 UNK         0.0807 
    120 H120      -79.6073   21.0659  -76.4304 H         1 UNK         0.0807 
    121 H121      -78.2804   20.6802  -77.5238 H         1 UNK         0.0807 
    122 H122      -79.9448   24.2139  -78.3713 H         1 UNK         0.2946 
    123 H123      -81.7533   25.3181  -77.9373 H         1 UNK         0.1144 
    124 H124      -83.6098   23.3361  -76.5067 H         1 UNK         0.0793 
    125 H125      -83.0558   23.2044  -78.1697 H         1 UNK         0.0793 
    126 H126      -84.1040   24.5343  -77.7031 H         1 UNK         0.0793 
    127 H127      -83.0961   25.4413  -75.3303 H         1 UNK         0.2896 
@<TRIPOS>BOND
     1    1    2 1    
     2    1   67 1    
     3    1   68 1    
     4    1   69 1    
     5    2    3 2    
     6    2    4 am   BACKBONE|DICT|INTERRES
     7    4    5 1    
     8    4   70 1    
     9    5    6 1    
    10    5   65 1    
    11    5   71 1    
    12    6    7 1    
    13    6   72 1    
    14    6   73 1    
    15    7    8 1    
    16    8    9 1    
    17    8   74 1    
    18    8   75 1    
    19    9   10 ar   
    20    9   14 ar   
    21   10   11 ar   
    22   10   76 1    
    23   11   12 ar   
    24   11   48 1    
    25   12   13 ar   
    26   12   77 1    
    27   13   14 ar   
    28   13   15 1    
    29   14   78 1    
    30   15   16 1    
    31   15   79 1    
    32   15   80 1    
    33   16   17 1    
    34   17   18 1    
    35   17   81 1    
    36   17   82 1    
    37   18   19 1    
    38   18   22 1    
    39   18   83 1    
    40   19   20 am   BACKBONE|DICT|INTERRES
    41   19   21 2    
    42   20   84 1    
    43   20   85 1    
    44   22   23 am   BACKBONE|DICT|INTERRES
    45   22   86 1    
    46   23   24 2    
    47   23   25 1    
    48   25   26 1    
    49   25   27 1    
    50   25   87 1    
    51   26   88 1    
    52   26   89 1    
    53   26   90 1    
    54   27   28 am   BACKBONE|DICT|INTERRES
    55   27   91 1    
    56   28   29 2    
    57   28   30 1    
    58   30   31 1    
    59   30   32 1    
    60   30   92 1    
    61   31   93 1    
    62   31   94 1    
    63   31   95 1    
    64   32   33 am   BACKBONE|DICT|INTERRES
    65   32   96 1    
    66   33   34 2    
    67   33   35 1    
    68   35   36 1    
    69   35   37 1    
    70   35   97 1    
    71   36   98 1    
    72   36   99 1    
    73   36  100 1    
    74   37   38 am   BACKBONE|DICT|INTERRES
    75   37  101 1    
    76   38   39 2    
    77   38   40 1    
    78   40   41 1    
    79   40   42 1    
    80   40  102 1    
    81   41  103 1    
    82   41  104 1    
    83   41  105 1    
    84   42   43 am   BACKBONE|DICT|INTERRES
    85   42  106 1    
    86   43   44 2    
    87   43   45 1    
    88   45   46 1    
    89   45   49 1    
    90   45  107 1    
    91   46   47 1    
    92   46  108 1    
    93   46  109 1    
    94   47   48 1    
    95   48  110 1    
    96   48  111 1    
    97   49   50 am   BACKBONE|DICT|INTERRES
    98   49  112 1    
    99   50   51 2    
   100   50   52 1    
   101   52   53 1    
   102   52   54 1    
   103   52  113 1    
   104   53  114 1    
   105   53  115 1    
   106   53  116 1    
   107   54   55 am   BACKBONE|DICT|INTERRES
   108   54  117 1    
   109   55   56 2    
   110   55   57 1    
   111   57   58 1    
   112   57   59 1    
   113   57  118 1    
   114   58  119 1    
   115   58  120 1    
   116   58  121 1    
   117   59   60 am   BACKBONE|DICT|INTERRES
   118   59  122 1    
   119   60   61 2    
   120   60   62 1    
   121   62   63 1    
   122   62   64 1    
   123   62  123 1    
   124   63  124 1    
   125   63  125 1    
   126   63  126 1    
   127   64   65 am   BACKBONE|DICT|INTERRES
   128   64  127 1    
   129   65   66 2    
@<TRIPOS>SUBSTRUCTURE
     1 UNK         1 GROUP             0       ****    0 ROOT    
