@<TRIPOS>MOLECULE
3R135
127   129    1
SMALL
USER_CHARGES


@<TRIPOS>ATOM
      1 CA        -83.4519   25.0930  -73.7166 C.3       0 UNK        -0.1998 
      2 C         -82.1509   25.5617  -74.3486 C.2       0 UNK         0.4909 
      3 O         -81.1787   24.8047  -74.3645 O.2       0 UNK        -0.5240 
      4 N         -82.1332   26.7940  -74.8766 N.am      1 UNK        -0.4739 
      5 CA        -80.9925   27.4494  -75.5336 C.3       1 UNK         0.0864 
      6 C6        -79.8368   27.7821  -74.5504 C.3       11 UNK        -0.0881 
      7 S7        -80.3712   28.9944  -73.2970 S.3       11 UNK        -0.2682 
      8 C8        -78.8605   29.9989  -73.0868 C.3       11 UNK         0.0289 
      9 C9        -77.6848   29.2500  -72.4598 C.ar      11 UNK        -0.0687 
     10 C10       -77.8805   28.2470  -71.5014 C.ar      11 UNK        -0.0823 
     11 C11       -76.7927   27.5857  -70.9259 C.ar      11 UNK        -0.0830 
     12 C12       -75.4957   27.9479  -71.2958 C.ar      11 UNK        -0.1021 
     13 C13       -75.2818   28.9614  -72.2334 C.ar      11 UNK        -0.0753 
     14 C14       -76.3787   29.6043  -72.8157 C.ar      11 UNK        -0.0933 
     15 C15       -73.8621   29.3641  -72.5974 C.3       11 UNK         0.0166 
     16 S16       -73.2885   30.7195  -71.5260 S.3       11 UNK        -0.2615 
     17 C17       -71.4754   30.5219  -71.6023 C.3       11 UNK        -0.0865 
     18 CA        -70.7741   31.5804  -72.4915 C.3       10 UNK         0.0862 
     19 C         -69.2275   31.4428  -72.3583 C.2       10 UNK         0.5551 
     20 N         -68.5180   30.9081  -73.3463 N.am      10 UNK        -0.7319 
     21 O         -68.6658   31.8282  -71.3359 O.2       10 UNK        -0.5018 
     22 N         -71.2645   31.5332  -73.8767 N.am      10 UNK        -0.4509 
     23 C         -70.9969   32.4429  -74.8218 C.2       10 UNK         0.4899 
     24 O         -70.4631   33.5282  -74.5867 O.2       10 UNK        -0.4839 
     25 CA        -71.3757   32.0808  -76.2759 C.3       9 UNK         0.0222 
     26 CB        -70.3311   32.6035  -77.2841 C.3       9 UNK        -0.1966 
     27 N         -71.6329   30.6508  -76.5153 N.am      9 UNK        -0.4218 
     28 C         -70.8214   29.6068  -76.2879 C.2       9 UNK         0.5020 
     29 O         -69.6994   29.7157  -75.7883 O.2       9 UNK        -0.5274 
     30 CA        -71.3748   28.2082  -76.6387 C.3       8 UNK         0.0270 
     31 CB        -70.5088   27.0710  -76.0640 C.3       8 UNK        -0.1976 
     32 N         -72.7632   27.9966  -76.2097 N.am      8 UNK        -0.4313 
     33 C         -73.8609   28.4954  -76.7906 C.2       8 UNK         0.5041 
     34 O         -73.8146   29.2922  -77.7298 O.2       8 UNK        -0.5577 
     35 CA        -75.2238   28.0358  -76.2319 C.3       7 UNK         0.0284 
     36 CB        -76.4016   28.5254  -77.0955 C.3       7 UNK        -0.1958 
     37 N         -75.3184   26.5800  -76.0938 N.am      7 UNK        -0.4454 
     38 C         -74.7542   25.8450  -75.1282 C.2       7 UNK         0.5089 
     39 O         -74.0278   26.3112  -74.2483 O.2       7 UNK        -0.5125 
     40 CA        -75.0138   24.3306  -75.1818 C.3       6 UNK         0.0408 
     41 CB        -73.6923   23.5448  -75.1436 C.3       6 UNK        -0.1791 
     42 N         -75.8784   23.8807  -74.0896 N.am      6 UNK        -0.4762 
     43 C         -77.1624   24.2319  -73.9350 C.2       6 UNK         0.5007 
     44 O         -77.7540   25.0074  -74.6868 O.2       6 UNK        -0.5032 
     45 CA        -77.9275   23.5960  -72.7645 C.3       5 UNK         0.0783 
     46 C46       -78.1951   24.6088  -71.6263 C.3       11 UNK        -0.0857 
     47 S47       -76.7292   24.8340  -70.5650 S.3       11 UNK        -0.2512 
     48 C48       -77.0144   26.4980  -69.8853 C.3       11 UNK         0.0225 
     49 N         -79.1788   23.0497  -73.2907 N.am      5 UNK        -0.4615 
     50 C         -79.4776   21.7457  -73.3406 C.2       4 UNK         0.5053 
     51 O         -78.7313   20.8566  -72.9292 O.2       4 UNK        -0.5105 
     52 CA        -80.8286   21.3510  -73.9497 C.3       4 UNK         0.0263 
     53 CB        -81.9675   21.5803  -72.9417 C.3       4 UNK        -0.1981 
     54 N         -81.1027   22.0940  -75.1806 N.am      4 UNK        -0.4224 
     55 C         -81.4469   21.5363  -76.3492 C.2       3 UNK         0.4895 
     56 O         -81.5608   20.3225  -76.5264 O.2       3 UNK        -0.5091 
     57 CA        -81.7308   22.4846  -77.5265 C.3       3 UNK         0.0250 
     58 CB        -83.2048   22.9215  -77.5204 C.3       3 UNK        -0.1996 
     59 N         -80.8793   23.6735  -77.5379 N.am      3 UNK        -0.4254 
     60 C         -79.5684   23.6908  -77.8085 C.2       2 UNK         0.5004 
     61 O         -78.9226   22.6850  -78.1044 O.2       2 UNK        -0.5226 
     62 CA        -78.8402   25.0464  -77.7289 C.3       2 UNK         0.0269 
     63 CB        -78.6878   25.6912  -79.1206 C.3       2 UNK        -0.1926 
     64 N         -79.4067   25.9823  -76.7440 N.am      2 UNK        -0.4687 
     65 C         -80.5714   26.6463  -76.7826 C.2       1 UNK         0.5165 
     66 O         -81.3503   26.5948  -77.7356 O.2       1 UNK        -0.5079 
     67 H67       -83.7575   24.1401  -74.1475 H         1 UNK         0.0900 
     68 H68       -83.3158   24.9541  -72.6446 H         1 UNK         0.0900 
     69 H69       -84.2599   25.8084  -73.8675 H         1 UNK         0.0900 
     70 H70       -82.9769   27.3489  -74.8456 H         1 UNK         0.2959 
     71 H71       -81.3682   28.3968  -75.9243 H         1 UNK         0.1079 
     72 H72       -78.9826   28.1954  -75.0867 H         1 UNK         0.0837 
     73 H73       -79.4790   26.8905  -74.0345 H         1 UNK         0.0837 
     74 H74       -79.1000   30.8520  -72.4510 H         1 UNK         0.0685 
     75 H75       -78.5771   30.4082  -74.0580 H         1 UNK         0.0685 
     76 H76       -78.8823   27.9774  -71.1983 H         1 UNK         0.1434 
     77 H77       -74.6506   27.4444  -70.8462 H         1 UNK         0.1329 
     78 H78       -76.2122   30.3938  -73.5358 H         1 UNK         0.1335 
     79 H79       -73.2051   28.4983  -72.5014 H         1 UNK         0.0680 
     80 H80       -73.8090   29.6792  -73.6400 H         1 UNK         0.0680 
     81 H81       -71.1081   30.5943  -70.5764 H         1 UNK         0.1032 
     82 H82       -71.2195   29.5138  -71.9332 H         1 UNK         0.1032 
     83 H83       -71.0292   32.5658  -72.0968 H         1 UNK         0.0461 
     84 H84       -67.5189   30.8266  -73.2477 H         1 UNK         0.3453 
     85 H85       -68.9709   30.5674  -74.1896 H         1 UNK         0.3453 
     86 H86       -71.7004   30.6715  -74.1630 H         1 UNK         0.2984 
     87 H87       -72.3174   32.5931  -76.4771 H         1 UNK         0.0554 
     88 H88       -70.2252   33.6870  -77.2183 H         1 UNK         0.0847 
     89 H89       -70.6182   32.3718  -78.3097 H         1 UNK         0.0847 
     90 H90       -69.3469   32.1691  -77.1050 H         1 UNK         0.0847 
     91 H91       -72.5269   30.4261  -76.9495 H         1 UNK         0.3141 
     92 H92       -71.3427   28.1284  -77.7273 H         1 UNK         0.0743 
     93 H93       -70.8847   26.0933  -76.3663 H         1 UNK         0.0784 
     94 H94       -69.4795   27.1418  -76.4185 H         1 UNK         0.0784 
     95 H95       -70.4821   27.0979  -74.9738 H         1 UNK         0.0784 
     96 H96       -72.9105   27.3753  -75.4179 H         1 UNK         0.3213 
     97 H97       -75.3317   28.4783  -75.2408 H         1 UNK         0.0855 
     98 H98       -76.3188   28.1753  -78.1252 H         1 UNK         0.0814 
     99 H99       -76.4388   29.6152  -77.1241 H         1 UNK         0.0814 
    100 H100      -77.3566   28.1804  -76.7039 H         1 UNK         0.0814 
    101 H101      -75.8725   26.1048  -76.7899 H         1 UNK         0.3105 
    102 H102      -75.5144   24.0922  -76.1227 H         1 UNK         0.0547 
    103 H103      -73.0286   23.8586  -75.9504 H         1 UNK         0.0837 
    104 H104      -73.1568   23.6973  -74.2055 H         1 UNK         0.0837 
    105 H105      -73.8618   22.4747  -75.2635 H         1 UNK         0.0837 
    106 H106      -75.4518   23.2748  -73.4035 H         1 UNK         0.3020 
    107 H107      -77.3193   22.7839  -72.3598 H         1 UNK         0.1245 
    108 H108      -78.9979   24.2442  -70.9833 H         1 UNK         0.0781 
    109 H109      -78.5416   25.5647  -72.0222 H         1 UNK         0.0781 
    110 H110      -78.0215   26.5529  -69.4689 H         1 UNK         0.0836 
    111 H111      -76.3321   26.6573  -69.0491 H         1 UNK         0.0836 
    112 H112      -79.8258   23.7335  -73.6785 H         1 UNK         0.3022 
    113 H113      -80.7782   20.2805  -74.1598 H         1 UNK         0.0747 
    114 H114      -81.7980   21.0120  -72.0263 H         1 UNK         0.0793 
    115 H115      -82.9267   21.2609  -73.3494 H         1 UNK         0.0793 
    116 H116      -82.0552   22.6304  -72.6618 H         1 UNK         0.0793 
    117 H117      -81.0414   23.1076  -75.1161 H         1 UNK         0.3047 
    118 H118      -81.5432   21.9296  -78.4483 H         1 UNK         0.0822 
    119 H119      -83.4437   23.5223  -78.3982 H         1 UNK         0.0807 
    120 H120      -83.4489   23.5097  -76.6353 H         1 UNK         0.0807 
    121 H121      -83.8689   22.0559  -77.5309 H         1 UNK         0.0807 
    122 H122      -81.3238   24.5653  -77.3558 H         1 UNK         0.2946 
    123 H123      -77.8371   24.8188  -77.3667 H         1 UNK         0.1144 
    124 H124      -78.1309   25.0351  -79.7907 H         1 UNK         0.0793 
    125 H125      -78.1454   26.6346  -79.0654 H         1 UNK         0.0793 
    126 H126      -79.6518   25.8846  -79.5915 H         1 UNK         0.0793 
    127 H127      -78.9014   25.9744  -75.8603 H         1 UNK         0.2896 
@<TRIPOS>BOND
     1    1    2 1    
     2    1   67 1    
     3    1   68 1    
     4    1   69 1    
     5    2    3 2    
     6    2    4 am   BACKBONE|DICT|INTERRES
     7    4    5 1    
     8    4   70 1    
     9    5    6 1    
    10    5   65 1    
    11    5   71 1    
    12    6    7 1    
    13    6   72 1    
    14    6   73 1    
    15    7    8 1    
    16    8    9 1    
    17    8   74 1    
    18    8   75 1    
    19    9   10 ar   
    20    9   14 ar   
    21   10   11 ar   
    22   10   76 1    
    23   11   12 ar   
    24   11   48 1    
    25   12   13 ar   
    26   12   77 1    
    27   13   14 ar   
    28   13   15 1    
    29   14   78 1    
    30   15   16 1    
    31   15   79 1    
    32   15   80 1    
    33   16   17 1    
    34   17   18 1    
    35   17   81 1    
    36   17   82 1    
    37   18   19 1    
    38   18   22 1    
    39   18   83 1    
    40   19   20 am   BACKBONE|DICT|INTERRES
    41   19   21 2    
    42   20   84 1    
    43   20   85 1    
    44   22   23 am   BACKBONE|DICT|INTERRES
    45   22   86 1    
    46   23   24 2    
    47   23   25 1    
    48   25   26 1    
    49   25   27 1    
    50   25   87 1    
    51   26   88 1    
    52   26   89 1    
    53   26   90 1    
    54   27   28 am   BACKBONE|DICT|INTERRES
    55   27   91 1    
    56   28   29 2    
    57   28   30 1    
    58   30   31 1    
    59   30   32 1    
    60   30   92 1    
    61   31   93 1    
    62   31   94 1    
    63   31   95 1    
    64   32   33 am   BACKBONE|DICT|INTERRES
    65   32   96 1    
    66   33   34 2    
    67   33   35 1    
    68   35   36 1    
    69   35   37 1    
    70   35   97 1    
    71   36   98 1    
    72   36   99 1    
    73   36  100 1    
    74   37   38 am   BACKBONE|DICT|INTERRES
    75   37  101 1    
    76   38   39 2    
    77   38   40 1    
    78   40   41 1    
    79   40   42 1    
    80   40  102 1    
    81   41  103 1    
    82   41  104 1    
    83   41  105 1    
    84   42   43 am   BACKBONE|DICT|INTERRES
    85   42  106 1    
    86   43   44 2    
    87   43   45 1    
    88   45   46 1    
    89   45   49 1    
    90   45  107 1    
    91   46   47 1    
    92   46  108 1    
    93   46  109 1    
    94   47   48 1    
    95   48  110 1    
    96   48  111 1    
    97   49   50 am   BACKBONE|DICT|INTERRES
    98   49  112 1    
    99   50   51 2    
   100   50   52 1    
   101   52   53 1    
   102   52   54 1    
   103   52  113 1    
   104   53  114 1    
   105   53  115 1    
   106   53  116 1    
   107   54   55 am   BACKBONE|DICT|INTERRES
   108   54  117 1    
   109   55   56 2    
   110   55   57 1    
   111   57   58 1    
   112   57   59 1    
   113   57  118 1    
   114   58  119 1    
   115   58  120 1    
   116   58  121 1    
   117   59   60 am   BACKBONE|DICT|INTERRES
   118   59  122 1    
   119   60   61 2    
   120   60   62 1    
   121   62   63 1    
   122   62   64 1    
   123   62  123 1    
   124   63  124 1    
   125   63  125 1    
   126   63  126 1    
   127   64   65 am   BACKBONE|DICT|INTERRES
   128   64  127 1    
   129   65   66 2    
@<TRIPOS>SUBSTRUCTURE
     1 UNK         1 GROUP             0       ****    0 ROOT    
