@<TRIPOS>MOLECULE
3R135
127   129    1
SMALL
USER_CHARGES


@<TRIPOS>ATOM
      1 CA        -74.4178   22.3521  -75.4496 C.3       0 UNK        -0.1998 
      2 C         -75.0250   22.7169  -74.1043 C.2       0 UNK         0.4909 
      3 O         -74.6774   22.1070  -73.0921 O.2       0 UNK        -0.5240 
      4 N         -75.9203   23.7116  -74.0858 N.am      1 UNK        -0.4739 
      5 CA        -76.6436   24.1547  -72.8910 C.3       1 UNK         0.0864 
      6 C6        -76.8269   25.6955  -72.8989 C.3       11 UNK        -0.0881 
      7 S7        -76.7606   26.4014  -71.2159 S.3       11 UNK        -0.2682 
      8 C8        -78.3591   27.2784  -71.1016 C.3       11 UNK         0.0289 
      9 C9        -78.5473   28.3442  -72.1767 C.ar      11 UNK        -0.0687 
     10 C10       -79.7835   28.4764  -72.8123 C.ar      11 UNK        -0.0823 
     11 C11       -79.9695   29.4358  -73.8106 C.ar      11 UNK        -0.0830 
     12 C12       -78.9017   30.2598  -74.1842 C.ar      11 UNK        -0.1021 
     13 C13       -77.6536   30.1361  -73.5640 C.ar      11 UNK        -0.0753 
     14 C14       -77.4990   29.1947  -72.5404 C.ar      11 UNK        -0.0933 
     15 C15       -76.4965   31.0318  -74.0081 C.3       11 UNK         0.0166 
     16 S16       -74.8733   30.1883  -74.0291 S.3       11 UNK        -0.2615 
     17 C17       -74.2458   30.5104  -72.3400 C.3       11 UNK        -0.0865 
     18 CA        -72.8107   31.1006  -72.3495 C.3       10 UNK         0.0862 
     19 C         -72.4120   31.6416  -70.9446 C.2       10 UNK         0.5551 
     20 N         -71.3665   31.1325  -70.3039 N.am      10 UNK        -0.7319 
     21 O         -73.0620   32.5483  -70.4302 O.2       10 UNK        -0.5018 
     22 N         -71.8550   30.1411  -72.9256 N.am      10 UNK        -0.4509 
     23 C         -70.6933   30.4507  -73.5150 C.2       10 UNK         0.4899 
     24 O         -70.2700   31.6012  -73.6304 O.2       10 UNK        -0.4839 
     25 CA        -69.8485   29.2815  -74.0663 C.3       9 UNK         0.0222 
     26 CB        -68.6014   29.0631  -73.1930 C.3       9 UNK        -0.1966 
     27 N         -70.5806   28.0123  -74.1807 N.am      9 UNK        -0.4218 
     28 C         -71.5691   27.7772  -75.0545 C.2       9 UNK         0.5020 
     29 O         -71.9362   28.5939  -75.9023 O.2       9 UNK        -0.5274 
     30 CA        -72.2913   26.4250  -74.9112 C.3       8 UNK         0.0270 
     31 CB        -73.0580   26.3557  -73.5769 C.3       8 UNK        -0.1976 
     32 N         -73.2456   26.2379  -76.0021 N.am      8 UNK        -0.4313 
     33 C         -72.9589   25.7279  -77.2066 C.2       8 UNK         0.5041 
     34 O         -71.8847   25.1960  -77.4905 O.2       8 UNK        -0.5577 
     35 CA        -74.0582   25.8337  -78.2796 C.3       7 UNK         0.0284 
     36 CB        -74.8288   24.5113  -78.4070 C.3       7 UNK        -0.1958 
     37 N         -75.0021   26.9174  -77.9901 N.am      7 UNK        -0.4454 
     38 C         -74.7809   28.2079  -78.2816 C.2       7 UNK         0.5089 
     39 O         -73.8071   28.5942  -78.9295 O.2       7 UNK        -0.5125 
     40 CA        -75.7798   29.2547  -77.7419 C.3       6 UNK         0.0408 
     41 CB        -76.1939   30.2716  -78.8261 C.3       6 UNK        -0.1791 
     42 N         -76.9591   28.7042  -77.0561 N.am      6 UNK        -0.4762 
     43 C         -77.9479   27.9777  -77.5974 C.2       6 UNK         0.5007 
     44 O         -77.9928   27.6433  -78.7831 O.2       6 UNK        -0.5032 
     45 CA        -79.0866   27.5597  -76.6500 C.3       5 UNK         0.0783 
     46 C46       -80.3198   28.4667  -76.8817 C.3       11 UNK        -0.0857 
     47 S47       -81.6276   28.1848  -75.6445 S.3       11 UNK        -0.2512 
     48 C48       -81.3239   29.5629  -74.4929 C.3       11 UNK         0.0225 
     49 N         -79.4179   26.1437  -76.8114 N.am      5 UNK        -0.4615 
     50 C         -78.5867   25.1139  -76.6200 C.2       4 UNK         0.5053 
     51 O         -77.4253   25.2251  -76.2160 O.2       4 UNK        -0.5105 
     52 CA        -79.1883   23.7293  -76.9038 C.3       4 UNK         0.0263 
     53 CB        -78.1247   22.6249  -77.0339 C.3       4 UNK        -0.1981 
     54 N         -80.1419   23.3736  -75.8516 N.am      4 UNK        -0.4224 
     55 C         -81.4364   23.7276  -75.8476 C.2       3 UNK         0.4895 
     56 O         -81.9573   24.3814  -76.7528 O.2       3 UNK        -0.5091 
     57 CA        -82.3116   23.2804  -74.6607 C.3       3 UNK         0.0250 
     58 CB        -83.1654   22.0642  -75.0560 C.3       3 UNK        -0.1996 
     59 N         -81.5452   22.9525  -73.4571 N.am      3 UNK        -0.4254 
     60 C         -81.0239   23.8573  -72.6185 C.2       2 UNK         0.5004 
     61 O         -81.1838   25.0727  -72.7354 O.2       2 UNK        -0.5226 
     62 CA        -80.1361   23.3325  -71.4719 C.3       2 UNK         0.0269 
     63 CB        -80.2611   21.8143  -71.2049 C.3       2 UNK        -0.1926 
     64 N         -78.7364   23.7133  -71.6969 N.am      2 UNK        -0.4687 
     65 C         -77.9956   23.4208  -72.7757 C.2       1 UNK         0.5165 
     66 O         -78.3674   22.6476  -73.6632 O.2       1 UNK        -0.5079 
     67 H67       -75.1850   22.2650  -76.2169 H         1 UNK         0.0900 
     68 H68       -73.8995   21.3953  -75.3898 H         1 UNK         0.0900 
     69 H69       -73.6959   23.1081  -75.7563 H         1 UNK         0.0900 
     70 H70       -76.2325   24.1397  -74.9518 H         1 UNK         0.2959 
     71 H71       -76.0577   23.8776  -72.0116 H         1 UNK         0.1079 
     72 H72       -76.0238   26.1729  -73.4611 H         1 UNK         0.0837 
     73 H73       -77.7435   25.9903  -73.4150 H         1 UNK         0.0837 
     74 H74       -79.1649   26.5445  -71.1479 H         1 UNK         0.0685 
     75 H75       -78.4287   27.7543  -70.1229 H         1 UNK         0.0685 
     76 H76       -80.6030   27.8238  -72.5406 H         1 UNK         0.1434 
     77 H77       -79.0417   30.9957  -74.9645 H         1 UNK         0.1329 
     78 H78       -76.5508   29.0975  -72.0356 H         1 UNK         0.1335 
     79 H79       -76.6835   31.3924  -75.0209 H         1 UNK         0.0680 
     80 H80       -76.4585   31.9194  -73.3759 H         1 UNK         0.0680 
     81 H81       -74.2659   29.5781  -71.7729 H         1 UNK         0.1032 
     82 H82       -74.9335   31.1852  -71.8271 H         1 UNK         0.1032 
     83 H83       -72.8259   31.9772  -73.0003 H         1 UNK         0.0461 
     84 H84       -70.8230   30.3950  -70.7213 H         1 UNK         0.3453 
     85 H85       -71.1169   31.4953  -69.3973 H         1 UNK         0.3453 
     86 H86       -72.1230   29.1709  -72.8812 H         1 UNK         0.2984 
     87 H87       -69.5162   29.5688  -75.0661 H         1 UNK         0.0554 
     88 H88       -67.9475   28.3006  -73.6167 H         1 UNK         0.0847 
     89 H89       -68.8638   28.7568  -72.1797 H         1 UNK         0.0847 
     90 H90       -68.0141   29.9793  -73.1134 H         1 UNK         0.0847 
     91 H91       -70.3332   27.2878  -73.5212 H         1 UNK         0.3141 
     92 H92       -71.5458   25.6272  -74.9357 H         1 UNK         0.0743 
     93 H93       -72.3831   26.4204  -72.7230 H         1 UNK         0.0784 
     94 H94       -73.5965   25.4134  -73.4796 H         1 UNK         0.0784 
     95 H95       -73.7818   27.1666  -73.4826 H         1 UNK         0.0784 
     96 H96       -74.1300   26.7116  -75.9006 H         1 UNK         0.3213 
     97 H97       -73.5675   26.0316  -79.2352 H         1 UNK         0.0855 
     98 H98       -74.1543   23.6849  -78.6354 H         1 UNK         0.0814 
     99 H99       -75.5683   24.5585  -79.2065 H         1 UNK         0.0814 
    100 H100      -75.3500   24.2635  -77.4844 H         1 UNK         0.0814 
    101 H101      -75.8508   26.6704  -77.4980 H         1 UNK         0.3105 
    102 H102      -75.2310   29.8083  -76.9795 H         1 UNK         0.0547 
    103 H103      -76.6889   29.7897  -79.6695 H         1 UNK         0.0837 
    104 H104      -75.3239   30.7970  -79.2219 H         1 UNK         0.0837 
    105 H105      -76.8695   31.0269  -78.4253 H         1 UNK         0.0837 
    106 H106      -77.0038   28.9100  -76.0666 H         1 UNK         0.3020 
    107 H107      -78.7405   27.6832  -75.6219 H         1 UNK         0.1245 
    108 H108      -80.7445   28.2879  -77.8715 H         1 UNK         0.0781 
    109 H109      -80.0403   29.5220  -76.8654 H         1 UNK         0.0781 
    110 H110      -82.1103   29.5711  -73.7368 H         1 UNK         0.0836 
    111 H111      -81.4062   30.5110  -75.0267 H         1 UNK         0.0836 
    112 H112      -80.3699   25.9390  -77.0883 H         1 UNK         0.3022 
    113 H113      -79.7069   23.7863  -77.8635 H         1 UNK         0.0747 
    114 H114      -78.5798   21.6696  -77.2951 H         1 UNK         0.0793 
    115 H115      -77.4068   22.8659  -77.8182 H         1 UNK         0.0793 
    116 H116      -77.5675   22.4834  -76.1100 H         1 UNK         0.0793 
    117 H117      -79.7472   22.9140  -75.0354 H         1 UNK         0.3047 
    118 H118      -82.9864   24.1072  -74.4273 H         1 UNK         0.0822 
    119 H119      -83.8460   21.7789  -74.2535 H         1 UNK         0.0807 
    120 H120      -82.5481   21.1981  -75.2984 H         1 UNK         0.0807 
    121 H121      -83.7761   22.2844  -75.9328 H         1 UNK         0.0807 
    122 H122      -81.3388   21.9768  -73.2979 H         1 UNK         0.2946 
    123 H123      -80.4667   23.8541  -70.5719 H         1 UNK         0.1144 
    124 H124      -81.2962   21.5346  -71.0038 H         1 UNK         0.0793 
    125 H125      -79.6798   21.5269  -70.3287 H         1 UNK         0.0793 
    126 H126      -79.9090   21.2083  -72.0401 H         1 UNK         0.0793 
    127 H127      -78.3545   24.3791  -71.0382 H         1 UNK         0.2896 
@<TRIPOS>BOND
     1    1    2 1    
     2    1   67 1    
     3    1   68 1    
     4    1   69 1    
     5    2    3 2    
     6    2    4 am   BACKBONE|DICT|INTERRES
     7    4    5 1    
     8    4   70 1    
     9    5    6 1    
    10    5   65 1    
    11    5   71 1    
    12    6    7 1    
    13    6   72 1    
    14    6   73 1    
    15    7    8 1    
    16    8    9 1    
    17    8   74 1    
    18    8   75 1    
    19    9   10 ar   
    20    9   14 ar   
    21   10   11 ar   
    22   10   76 1    
    23   11   12 ar   
    24   11   48 1    
    25   12   13 ar   
    26   12   77 1    
    27   13   14 ar   
    28   13   15 1    
    29   14   78 1    
    30   15   16 1    
    31   15   79 1    
    32   15   80 1    
    33   16   17 1    
    34   17   18 1    
    35   17   81 1    
    36   17   82 1    
    37   18   19 1    
    38   18   22 1    
    39   18   83 1    
    40   19   20 am   BACKBONE|DICT|INTERRES
    41   19   21 2    
    42   20   84 1    
    43   20   85 1    
    44   22   23 am   BACKBONE|DICT|INTERRES
    45   22   86 1    
    46   23   24 2    
    47   23   25 1    
    48   25   26 1    
    49   25   27 1    
    50   25   87 1    
    51   26   88 1    
    52   26   89 1    
    53   26   90 1    
    54   27   28 am   BACKBONE|DICT|INTERRES
    55   27   91 1    
    56   28   29 2    
    57   28   30 1    
    58   30   31 1    
    59   30   32 1    
    60   30   92 1    
    61   31   93 1    
    62   31   94 1    
    63   31   95 1    
    64   32   33 am   BACKBONE|DICT|INTERRES
    65   32   96 1    
    66   33   34 2    
    67   33   35 1    
    68   35   36 1    
    69   35   37 1    
    70   35   97 1    
    71   36   98 1    
    72   36   99 1    
    73   36  100 1    
    74   37   38 am   BACKBONE|DICT|INTERRES
    75   37  101 1    
    76   38   39 2    
    77   38   40 1    
    78   40   41 1    
    79   40   42 1    
    80   40  102 1    
    81   41  103 1    
    82   41  104 1    
    83   41  105 1    
    84   42   43 am   BACKBONE|DICT|INTERRES
    85   42  106 1    
    86   43   44 2    
    87   43   45 1    
    88   45   46 1    
    89   45   49 1    
    90   45  107 1    
    91   46   47 1    
    92   46  108 1    
    93   46  109 1    
    94   47   48 1    
    95   48  110 1    
    96   48  111 1    
    97   49   50 am   BACKBONE|DICT|INTERRES
    98   49  112 1    
    99   50   51 2    
   100   50   52 1    
   101   52   53 1    
   102   52   54 1    
   103   52  113 1    
   104   53  114 1    
   105   53  115 1    
   106   53  116 1    
   107   54   55 am   BACKBONE|DICT|INTERRES
   108   54  117 1    
   109   55   56 2    
   110   55   57 1    
   111   57   58 1    
   112   57   59 1    
   113   57  118 1    
   114   58  119 1    
   115   58  120 1    
   116   58  121 1    
   117   59   60 am   BACKBONE|DICT|INTERRES
   118   59  122 1    
   119   60   61 2    
   120   60   62 1    
   121   62   63 1    
   122   62   64 1    
   123   62  123 1    
   124   63  124 1    
   125   63  125 1    
   126   63  126 1    
   127   64   65 am   BACKBONE|DICT|INTERRES
   128   64  127 1    
   129   65   66 2    
@<TRIPOS>SUBSTRUCTURE
     1 UNK         1 GROUP             0       ****    0 ROOT    
