@<TRIPOS>MOLECULE
3R135
127   129    1
SMALL
USER_CHARGES


@<TRIPOS>ATOM
      1 CA        -80.7007   24.5625  -70.0826 C.3       0 UNK        -0.1998 
      2 C         -81.6209   25.1110  -71.1625 C.2       0 UNK         0.4909 
      3 O         -82.7495   24.6381  -71.3057 O.2       0 UNK        -0.5240 
      4 N         -81.1490   26.1123  -71.9142 N.am      1 UNK        -0.4739 
      5 CA        -81.8635   26.7193  -73.0445 C.3       1 UNK         0.0864 
      6 C6        -81.3796   28.1677  -73.3144 C.3       11 UNK        -0.0881 
      7 S7        -81.6865   29.2546  -71.8796 S.3       11 UNK        -0.2682 
      8 C8        -80.3584   30.4974  -72.0472 C.3       11 UNK         0.0289 
      9 C9        -78.9354   29.9445  -71.9634 C.ar      11 UNK        -0.0687 
     10 C10       -78.6180   28.8233  -71.1851 C.ar      11 UNK        -0.0823 
     11 C11       -77.3092   28.3351  -71.1395 C.ar      11 UNK        -0.0830 
     12 C12       -76.3040   28.9944  -71.8515 C.ar      11 UNK        -0.1021 
     13 C13       -76.6000   30.1257  -72.6150 C.ar      11 UNK        -0.0753 
     14 C14       -77.9163   30.5925  -72.6697 C.ar      11 UNK        -0.0933 
     15 C15       -75.4950   30.8386  -73.3774 C.3       11 UNK         0.0166 
     16 S16       -74.3609   31.6853  -72.2357 S.3       11 UNK        -0.2615 
     17 C17       -73.1984   32.4810  -73.3979 C.3       11 UNK        -0.0865 
     18 CA        -71.8251   31.7687  -73.5182 C.3       10 UNK         0.0862 
     19 C         -70.9832   31.8426  -72.2094 C.2       10 UNK         0.5551 
     20 N         -70.5486   30.7275  -71.6345 N.am      10 UNK        -0.7319 
     21 O         -70.7050   32.9343  -71.7188 O.2       10 UNK        -0.5018 
     22 N         -71.9605   30.4235  -74.1019 N.am      10 UNK        -0.4509 
     23 C         -71.0205   29.8195  -74.8398 C.2       10 UNK         0.4899 
     24 O         -69.9203   30.3176  -75.0819 O.2       10 UNK        -0.4839 
     25 CA        -71.3433   28.4282  -75.4189 C.3       9 UNK         0.0222 
     26 CB        -70.6717   27.3308  -74.5794 C.3       9 UNK        -0.1966 
     27 N         -72.7675   28.1069  -75.5771 N.am      9 UNK        -0.4218 
     28 C         -73.6461   28.7855  -76.3293 C.2       9 UNK         0.5020 
     29 O         -73.3896   29.8416  -76.9104 O.2       9 UNK        -0.5274 
     30 CA        -75.0379   28.1407  -76.4666 C.3       8 UNK         0.0270 
     31 CB        -76.0792   29.0751  -77.1197 C.3       8 UNK        -0.1976 
     32 N         -74.9537   26.8555  -77.1719 N.am      8 UNK        -0.4313 
     33 C         -74.5028   26.6239  -78.4162 C.2       8 UNK         0.5041 
     34 O         -74.1889   27.5056  -79.2175 O.2       8 UNK        -0.5577 
     35 CA        -74.3879   25.1426  -78.8314 C.3       7 UNK         0.0284 
     36 CB        -73.4400   24.9192  -80.0305 C.3       7 UNK        -0.1958 
     37 N         -74.0477   24.2606  -77.7047 N.am      7 UNK        -0.4454 
     38 C         -72.9018   24.2498  -77.0052 C.2       7 UNK         0.5089 
     39 O         -71.9365   24.9755  -77.2472 O.2       7 UNK        -0.5125 
     40 CA        -72.8557   23.2746  -75.8118 C.3       6 UNK         0.0408 
     41 CB        -71.5190   23.3149  -75.0432 C.3       6 UNK        -0.1791 
     42 N         -73.9772   23.4482  -74.8805 N.am      6 UNK        -0.4762 
     43 C         -74.3633   24.5690  -74.2516 C.2       6 UNK         0.5007 
     44 O         -73.8398   25.6716  -74.4323 O.2       6 UNK        -0.5032 
     45 CA        -75.5704   24.4338  -73.2945 C.3       5 UNK         0.0783 
     46 C46       -75.8417   25.7425  -72.5129 C.3       11 UNK        -0.0857 
     47 S47       -77.1996   25.5763  -71.3050 S.3       11 UNK        -0.2512 
     48 C48       -76.9805   27.0940  -70.3236 C.3       11 UNK         0.0225 
     49 N         -76.7642   24.0013  -74.0242 N.am      5 UNK        -0.4615 
     50 C         -77.0227   22.7675  -74.4734 C.2       4 UNK         0.5053 
     51 O         -76.2752   21.8055  -74.2921 O.2       4 UNK        -0.5105 
     52 CA        -78.3140   22.5831  -75.2876 C.3       4 UNK         0.0263 
     53 CB        -79.4217   21.9859  -74.4053 C.3       4 UNK        -0.1981 
     54 N         -78.7930   23.8297  -75.8963 N.am      4 UNK        -0.4224 
     55 C         -78.1804   24.4711  -76.9051 C.2       3 UNK         0.4895 
     56 O         -77.1294   24.0723  -77.4080 O.2       3 UNK        -0.5091 
     57 CA        -78.8015   25.7946  -77.4077 C.3       3 UNK         0.0250 
     58 CB        -78.5868   26.0138  -78.9198 C.3       3 UNK        -0.1996 
     59 N         -80.2125   25.9765  -77.0416 N.am      3 UNK        -0.4254 
     60 C         -81.2561   25.2042  -77.3840 C.2       2 UNK         0.5004 
     61 O         -81.1876   24.2872  -78.2036 O.2       2 UNK        -0.5226 
     62 CA        -82.5938   25.4771  -76.6557 C.3       2 UNK         0.0269 
     63 CB        -83.4099   24.1812  -76.4604 C.3       2 UNK        -0.1926 
     64 N         -82.4807   26.1870  -75.3658 N.am      2 UNK        -0.4687 
     65 C         -81.7346   25.8361  -74.3046 C.2       1 UNK         0.5165 
     66 O         -80.9439   24.8893  -74.3191 O.2       1 UNK        -0.5079 
     67 H67       -81.2584   24.3857  -69.1634 H         1 UNK         0.0900 
     68 H68       -80.2647   23.6178  -70.4064 H         1 UNK         0.0900 
     69 H69       -79.8899   25.2537  -69.8542 H         1 UNK         0.0900 
     70 H70       -80.1989   26.4257  -71.7814 H         1 UNK         0.2959 
     71 H71       -82.9270   26.7580  -72.7971 H         1 UNK         0.1079 
     72 H72       -81.8976   28.6074  -74.1684 H         1 UNK         0.0837 
     73 H73       -80.3176   28.1725  -73.5663 H         1 UNK         0.0837 
     74 H74       -80.4833   31.2439  -71.2620 H         1 UNK         0.0685 
     75 H75       -80.5027   31.0189  -72.9949 H         1 UNK         0.0685 
     76 H76       -79.3893   28.3216  -70.6182 H         1 UNK         0.1434 
     77 H77       -75.2865   28.6303  -71.8104 H         1 UNK         0.1329 
     78 H78       -78.1479   31.4681  -73.2610 H         1 UNK         0.1335 
     79 H79       -75.9143   31.5637  -74.0768 H         1 UNK         0.0680 
     80 H80       -74.9416   30.1134  -73.9728 H         1 UNK         0.0680 
     81 H81       -73.6599   32.5524  -74.3842 H         1 UNK         0.1032 
     82 H82       -73.0560   33.5146  -73.0765 H         1 UNK         0.1032 
     83 H83       -71.2555   32.3621  -74.2363 H         1 UNK         0.0461 
     84 H84       -70.7687   29.8306  -72.0353 H         1 UNK         0.3453 
     85 H85       -69.9989   30.7861  -70.7919 H         1 UNK         0.3453 
     86 H86       -72.8249   29.9389  -73.9181 H         1 UNK         0.2984 
     87 H87       -70.9030   28.3988  -76.4176 H         1 UNK         0.0554 
     88 H88       -69.6200   27.5570  -74.3970 H         1 UNK         0.0847 
     89 H89       -70.7047   26.3745  -75.0992 H         1 UNK         0.0847 
     90 H90       -71.1555   27.2068  -73.6099 H         1 UNK         0.0847 
     91 H91       -73.0792   27.2329  -75.1561 H         1 UNK         0.3141 
     92 H92       -75.3857   27.9207  -75.4558 H         1 UNK         0.0743 
     93 H93       -76.1828   29.9982  -76.5480 H         1 UNK         0.0784 
     94 H94       -77.0629   28.6104  -77.1633 H         1 UNK         0.0784 
     95 H95       -75.7975   29.3547  -78.1352 H         1 UNK         0.0784 
     96 H96       -75.1320   26.0392  -76.6043 H         1 UNK         0.3213 
     97 H97       -75.3839   24.8463  -79.1607 H         1 UNK         0.0855 
     98 H98       -72.4313   25.2788  -79.8257 H         1 UNK         0.0814 
     99 H99       -73.7975   25.4511  -80.9130 H         1 UNK         0.0814 
    100 H100      -73.3746   23.8639  -80.2948 H         1 UNK         0.0814 
    101 H101      -74.7990   23.6523  -77.4014 H         1 UNK         0.3105 
    102 H102      -72.9568   22.2746  -76.2363 H         1 UNK         0.0547 
    103 H103      -71.4684   22.5186  -74.3009 H         1 UNK         0.0837 
    104 H104      -71.3798   24.2609  -74.5220 H         1 UNK         0.0837 
    105 H105      -70.6711   23.1816  -75.7162 H         1 UNK         0.0837 
    106 H106      -74.5381   22.6180  -74.7054 H         1 UNK         0.3020 
    107 H107      -75.3107   23.6602  -72.5679 H         1 UNK         0.1245 
    108 H108      -76.0920   26.5502  -73.2030 H         1 UNK         0.0781 
    109 H109      -74.9434   26.0557  -71.9772 H         1 UNK         0.0781 
    110 H110      -75.9587   27.1435  -69.9440 H         1 UNK         0.0836 
    111 H111      -77.6268   27.0439  -69.4460 H         1 UNK         0.0836 
    112 H112      -77.4507   24.7176  -74.2055 H         1 UNK         0.3022 
    113 H113      -78.0980   21.8771  -76.0922 H         1 UNK         0.0747 
    114 H114      -80.3402   21.8301  -74.9715 H         1 UNK         0.0793 
    115 H115      -79.1199   21.0185  -74.0017 H         1 UNK         0.0793 
    116 H116      -79.6562   22.6330  -73.5589 H         1 UNK         0.0793 
    117 H117      -79.6361   24.2310  -75.4900 H         1 UNK         0.3047 
    118 H118      -78.2589   26.5820  -76.8844 H         1 UNK         0.0822 
    119 H119      -79.0305   26.9523  -79.2517 H         1 UNK         0.0807 
    120 H120      -79.0218   25.2081  -79.5116 H         1 UNK         0.0807 
    121 H121      -77.5256   26.0587  -79.1638 H         1 UNK         0.0807 
    122 H122      -80.3924   26.7021  -76.3626 H         1 UNK         0.2946 
    123 H123      -83.1622   26.1298  -77.3206 H         1 UNK         0.1144 
    124 H124      -84.3655   24.3825  -75.9763 H         1 UNK         0.0793 
    125 H125      -82.8711   23.4554  -75.8497 H         1 UNK         0.0793 
    126 H126      -83.6303   23.7034  -77.4159 H         1 UNK         0.0793 
    127 H127      -83.0772   26.9987  -75.2754 H         1 UNK         0.2896 
@<TRIPOS>BOND
     1    1    2 1    
     2    1   67 1    
     3    1   68 1    
     4    1   69 1    
     5    2    3 2    
     6    2    4 am   BACKBONE|DICT|INTERRES
     7    4    5 1    
     8    4   70 1    
     9    5    6 1    
    10    5   65 1    
    11    5   71 1    
    12    6    7 1    
    13    6   72 1    
    14    6   73 1    
    15    7    8 1    
    16    8    9 1    
    17    8   74 1    
    18    8   75 1    
    19    9   10 ar   
    20    9   14 ar   
    21   10   11 ar   
    22   10   76 1    
    23   11   12 ar   
    24   11   48 1    
    25   12   13 ar   
    26   12   77 1    
    27   13   14 ar   
    28   13   15 1    
    29   14   78 1    
    30   15   16 1    
    31   15   79 1    
    32   15   80 1    
    33   16   17 1    
    34   17   18 1    
    35   17   81 1    
    36   17   82 1    
    37   18   19 1    
    38   18   22 1    
    39   18   83 1    
    40   19   20 am   BACKBONE|DICT|INTERRES
    41   19   21 2    
    42   20   84 1    
    43   20   85 1    
    44   22   23 am   BACKBONE|DICT|INTERRES
    45   22   86 1    
    46   23   24 2    
    47   23   25 1    
    48   25   26 1    
    49   25   27 1    
    50   25   87 1    
    51   26   88 1    
    52   26   89 1    
    53   26   90 1    
    54   27   28 am   BACKBONE|DICT|INTERRES
    55   27   91 1    
    56   28   29 2    
    57   28   30 1    
    58   30   31 1    
    59   30   32 1    
    60   30   92 1    
    61   31   93 1    
    62   31   94 1    
    63   31   95 1    
    64   32   33 am   BACKBONE|DICT|INTERRES
    65   32   96 1    
    66   33   34 2    
    67   33   35 1    
    68   35   36 1    
    69   35   37 1    
    70   35   97 1    
    71   36   98 1    
    72   36   99 1    
    73   36  100 1    
    74   37   38 am   BACKBONE|DICT|INTERRES
    75   37  101 1    
    76   38   39 2    
    77   38   40 1    
    78   40   41 1    
    79   40   42 1    
    80   40  102 1    
    81   41  103 1    
    82   41  104 1    
    83   41  105 1    
    84   42   43 am   BACKBONE|DICT|INTERRES
    85   42  106 1    
    86   43   44 2    
    87   43   45 1    
    88   45   46 1    
    89   45   49 1    
    90   45  107 1    
    91   46   47 1    
    92   46  108 1    
    93   46  109 1    
    94   47   48 1    
    95   48  110 1    
    96   48  111 1    
    97   49   50 am   BACKBONE|DICT|INTERRES
    98   49  112 1    
    99   50   51 2    
   100   50   52 1    
   101   52   53 1    
   102   52   54 1    
   103   52  113 1    
   104   53  114 1    
   105   53  115 1    
   106   53  116 1    
   107   54   55 am   BACKBONE|DICT|INTERRES
   108   54  117 1    
   109   55   56 2    
   110   55   57 1    
   111   57   58 1    
   112   57   59 1    
   113   57  118 1    
   114   58  119 1    
   115   58  120 1    
   116   58  121 1    
   117   59   60 am   BACKBONE|DICT|INTERRES
   118   59  122 1    
   119   60   61 2    
   120   60   62 1    
   121   62   63 1    
   122   62   64 1    
   123   62  123 1    
   124   63  124 1    
   125   63  125 1    
   126   63  126 1    
   127   64   65 am   BACKBONE|DICT|INTERRES
   128   64  127 1    
   129   65   66 2    
@<TRIPOS>SUBSTRUCTURE
     1 UNK         1 GROUP             0       ****    0 ROOT    
