@<TRIPOS>MOLECULE
3R135
127   129    1
SMALL
USER_CHARGES


@<TRIPOS>ATOM
      1 CA        -74.7879   22.5163  -73.2549 C.3       0 UNK        -0.1998 
      2 C         -75.7611   23.1031  -72.2436 C.2       0 UNK         0.4909 
      3 O         -75.4281   23.2210  -71.0645 O.2       0 UNK        -0.5240 
      4 N         -76.9609   23.4701  -72.6998 N.am      1 UNK        -0.4739 
      5 CA        -78.0496   24.0378  -71.9071 C.3       1 UNK         0.0864 
      6 C6        -77.8384   25.5533  -71.6486 C.3       11 UNK        -0.0881 
      7 S7        -78.6860   26.1693  -70.1542 S.3       11 UNK        -0.2682 
      8 C8        -79.8696   27.3829  -70.8354 C.3       11 UNK         0.0289 
      9 C9        -79.2247   28.4598  -71.7036 C.ar      11 UNK        -0.0687 
     10 C10       -79.7904   28.7777  -72.9415 C.ar      11 UNK        -0.0823 
     11 C11       -79.2235   29.7610  -73.7571 C.ar      11 UNK        -0.0830 
     12 C12       -78.0686   30.4241  -73.3314 C.ar      11 UNK        -0.1021 
     13 C13       -77.5008   30.1294  -72.0872 C.ar      11 UNK        -0.0753 
     14 C14       -78.0877   29.1536  -71.2752 C.ar      11 UNK        -0.0933 
     15 C15       -76.2633   30.8747  -71.6105 C.3       11 UNK         0.0166 
     16 S16       -74.7984   29.8030  -71.6625 S.3       11 UNK        -0.2615 
     17 C17       -73.4565   31.0099  -71.3900 C.3       11 UNK        -0.0865 
     18 CA        -72.8504   31.5349  -72.7176 C.3       10 UNK         0.0862 
     19 C         -71.7124   32.5534  -72.4379 C.2       10 UNK         0.5551 
     20 N         -72.0393   33.8343  -72.3362 N.am      10 UNK        -0.7319 
     21 O         -70.5502   32.1892  -72.2671 O.2       10 UNK        -0.5018 
     22 N         -72.4274   30.4280  -73.5844 N.am      10 UNK        -0.4509 
     23 C         -72.0722   30.5229  -74.8684 C.2       10 UNK         0.4899 
     24 O         -72.0337   31.5847  -75.4911 O.2       10 UNK        -0.4839 
     25 CA        -71.7419   29.2138  -75.6089 C.3       9 UNK         0.0222 
     26 CB        -70.2356   28.8964  -75.5443 C.3       9 UNK        -0.1966 
     27 N         -72.5618   28.0597  -75.2096 N.am      9 UNK        -0.4218 
     28 C         -72.5544   27.3584  -74.0654 C.2       9 UNK         0.5020 
     29 O         -71.8345   27.6193  -73.1009 O.2       9 UNK        -0.5274 
     30 CA        -73.5316   26.1718  -73.9746 C.3       8 UNK         0.0270 
     31 CB        -74.9012   26.6435  -73.4655 C.3       8 UNK        -0.1976 
     32 N         -73.7097   25.4746  -75.2503 N.am      8 UNK        -0.4313 
     33 C         -72.7536   24.7826  -75.8872 C.2       8 UNK         0.5041 
     34 O         -71.6256   24.5875  -75.4336 O.2       8 UNK        -0.5577 
     35 CA        -73.1133   24.2283  -77.2742 C.3       7 UNK         0.0284 
     36 CB        -73.8041   22.8609  -77.1546 C.3       7 UNK        -0.1958 
     37 N         -73.9697   25.1555  -78.0173 N.am      7 UNK        -0.4454 
     38 C         -73.5220   26.2550  -78.6408 C.2       7 UNK         0.5089 
     39 O         -72.3322   26.5573  -78.7305 O.2       7 UNK        -0.5125 
     40 CA        -74.5812   27.1884  -79.2539 C.3       6 UNK         0.0408 
     41 CB        -74.8818   26.7811  -80.7048 C.3       6 UNK        -0.1791 
     42 N         -75.8310   27.2284  -78.4892 N.am      6 UNK        -0.4762 
     43 C         -75.9568   27.7416  -77.2555 C.2       6 UNK         0.5007 
     44 O         -75.0268   28.2538  -76.6349 O.2       6 UNK        -0.5032 
     45 CA        -77.3449   27.6257  -76.5932 C.3       5 UNK         0.0783 
     46 C46       -78.2048   28.8620  -76.9519 C.3       11 UNK        -0.0857 
     47 S47       -79.8978   28.7804  -76.2763 S.3       11 UNK        -0.2512 
     48 C48       -79.9003   30.1410  -75.0669 C.3       11 UNK         0.0225 
     49 N         -78.0158   26.3636  -76.9284 N.am      5 UNK        -0.4615 
     50 C         -77.5642   25.1364  -76.6458 C.2       4 UNK         0.5053 
     51 O         -76.4865   24.9197  -76.0865 O.2       4 UNK        -0.5105 
     52 CA        -78.4679   23.9698  -77.0813 C.3       4 UNK         0.0263 
     53 CB        -77.8747   22.5913  -76.7356 C.3       4 UNK        -0.1981 
     54 N         -79.8084   24.0840  -76.4981 N.am      4 UNK        -0.4224 
     55 C         -80.8163   24.7939  -77.0288 C.2       3 UNK         0.4895 
     56 O         -80.6868   25.4774  -78.0456 O.2       3 UNK        -0.5091 
     57 CA        -82.1977   24.7380  -76.3485 C.3       3 UNK         0.0250 
     58 CB        -83.1906   23.9555  -77.2251 C.3       3 UNK        -0.1996 
     59 N         -82.1650   24.1263  -75.0186 N.am      3 UNK        -0.4254 
     60 C         -81.9714   24.7982  -73.8768 C.2       2 UNK         0.5004 
     61 O         -81.8535   26.0217  -73.8139 O.2       2 UNK        -0.5226 
     62 CA        -81.8597   23.9744  -72.5770 C.3       2 UNK         0.0269 
     63 CB        -82.3037   22.4993  -72.7148 C.3       2 UNK        -0.1926 
     64 N         -80.5038   24.0562  -72.0185 N.am      2 UNK        -0.4687 
     65 C         -79.3649   23.7388  -72.6496 C.2       1 UNK         0.5165 
     66 O         -79.3296   23.2409  -73.7796 O.2       1 UNK        -0.5079 
     67 H67       -73.8427   23.0573  -73.2279 H         1 UNK         0.0900 
     68 H68       -75.1801   22.5729  -74.2696 H         1 UNK         0.0900 
     69 H69       -74.5893   21.4705  -73.0232 H         1 UNK         0.0900 
     70 H70       -77.2196   23.3075  -73.6659 H         1 UNK         0.2959 
     71 H71       -78.0843   23.5026  -70.9553 H         1 UNK         0.1079 
     72 H72       -76.7818   25.7513  -71.4695 H         1 UNK         0.0837 
     73 H73       -78.0997   26.1436  -72.5290 H         1 UNK         0.0837 
     74 H74       -80.6325   26.8450  -71.3994 H         1 UNK         0.0685 
     75 H75       -80.3871   27.8679  -70.0070 H         1 UNK         0.0685 
     76 H76       -80.6826   28.2650  -73.2744 H         1 UNK         0.1434 
     77 H77       -77.6242   31.1862  -73.9571 H         1 UNK         0.1329 
     78 H78       -77.6485   28.9246  -70.3139 H         1 UNK         0.1335 
     79 H79       -76.0876   31.7570  -72.2280 H         1 UNK         0.0680 
     80 H80       -76.4169   31.2317  -70.5911 H         1 UNK         0.0680 
     81 H81       -72.6858   30.5221  -70.7897 H         1 UNK         0.1032 
     82 H82       -73.8325   31.8354  -70.7824 H         1 UNK         0.1032 
     83 H83       -73.6409   32.0624  -73.2556 H         1 UNK         0.0461 
     84 H84       -71.3175   34.5098  -72.1383 H         1 UNK         0.3453 
     85 H85       -72.9904   34.1428  -72.4658 H         1 UNK         0.3453 
     86 H86       -72.3804   29.5115  -73.1522 H         1 UNK         0.2984 
     87 H87       -71.9915   29.3829  -76.6576 H         1 UNK         0.0554 
     88 H88       -69.9954   27.9994  -76.1154 H         1 UNK         0.0847 
     89 H89       -69.8925   28.7456  -74.5204 H         1 UNK         0.0847 
     90 H90       -69.6491   29.7153  -75.9627 H         1 UNK         0.0847 
     91 H91       -73.3072   27.8392  -75.8653 H         1 UNK         0.3141 
     92 H92       -73.1261   25.4535  -73.2594 H         1 UNK         0.0743 
     93 H93       -75.2597   27.5207  -74.0045 H         1 UNK         0.0784 
     94 H94       -75.6546   25.8642  -73.5651 H         1 UNK         0.0784 
     95 H95       -74.8440   26.9136  -72.4110 H         1 UNK         0.0784 
     96 H96       -74.6368   25.5065  -75.6638 H         1 UNK         0.3213 
     97 H97       -72.1829   24.0884  -77.8296 H         1 UNK         0.0855 
     98 H98       -74.7368   22.9271  -76.5966 H         1 UNK         0.0814 
     99 H99       -73.1644   22.1472  -76.6337 H         1 UNK         0.0814 
    100 H100      -74.0273   22.4408  -78.1353 H         1 UNK         0.0814 
    101 H101      -74.9667   25.0038  -77.9609 H         1 UNK         0.3105 
    102 H102      -74.1637   28.1976  -79.2644 H         1 UNK         0.0547 
    103 H103      -73.9691   26.7675  -81.3023 H         1 UNK         0.0837 
    104 H104      -75.3239   25.7858  -80.7641 H         1 UNK         0.0837 
    105 H105      -75.5667   27.4828  -81.1810 H         1 UNK         0.0837 
    106 H106      -76.6494   26.8280  -78.9255 H         1 UNK         0.3020 
    107 H107      -77.1883   27.6261  -75.5122 H         1 UNK         0.1245 
    108 H108      -77.7173   29.7739  -76.6015 H         1 UNK         0.0781 
    109 H109      -78.2940   28.9657  -78.0352 H         1 UNK         0.0781 
    110 H110      -80.9359   30.4112  -74.8557 H         1 UNK         0.0836 
    111 H111      -79.4439   31.0286  -75.5078 H         1 UNK         0.0836 
    112 H112      -78.9266   26.4426  -77.3676 H         1 UNK         0.3022 
    113 H113      -78.5493   24.0184  -78.1692 H         1 UNK         0.0747 
    114 H114      -78.5526   21.7859  -77.0183 H         1 UNK         0.0793 
    115 H115      -76.9413   22.4262  -77.2733 H         1 UNK         0.0793 
    116 H116      -77.6614   22.4900  -75.6719 H         1 UNK         0.0793 
    117 H117      -79.9351   23.6369  -75.5943 H         1 UNK         0.3047 
    118 H118      -82.5573   25.7664  -76.2676 H         1 UNK         0.0822 
    119 H119      -84.1898   23.9557  -76.7892 H         1 UNK         0.0807 
    120 H120      -82.8820   22.9180  -77.3591 H         1 UNK         0.0807 
    121 H121      -83.2728   24.4017  -78.2173 H         1 UNK         0.0807 
    122 H122      -82.2310   23.1193  -74.9778 H         1 UNK         0.2946 
    123 H123      -82.5274   24.4545  -71.8595 H         1 UNK         0.1144 
    124 H124      -83.3259   22.4284  -73.0895 H         1 UNK         0.0793 
    125 H125      -82.2872   21.9985  -71.7468 H         1 UNK         0.0793 
    126 H126      -81.6613   21.9285  -73.3860 H         1 UNK         0.0793 
    127 H127      -80.4296   24.4907  -71.1082 H         1 UNK         0.2896 
@<TRIPOS>BOND
     1    1    2 1    
     2    1   67 1    
     3    1   68 1    
     4    1   69 1    
     5    2    3 2    
     6    2    4 am   BACKBONE|DICT|INTERRES
     7    4    5 1    
     8    4   70 1    
     9    5    6 1    
    10    5   65 1    
    11    5   71 1    
    12    6    7 1    
    13    6   72 1    
    14    6   73 1    
    15    7    8 1    
    16    8    9 1    
    17    8   74 1    
    18    8   75 1    
    19    9   10 ar   
    20    9   14 ar   
    21   10   11 ar   
    22   10   76 1    
    23   11   12 ar   
    24   11   48 1    
    25   12   13 ar   
    26   12   77 1    
    27   13   14 ar   
    28   13   15 1    
    29   14   78 1    
    30   15   16 1    
    31   15   79 1    
    32   15   80 1    
    33   16   17 1    
    34   17   18 1    
    35   17   81 1    
    36   17   82 1    
    37   18   19 1    
    38   18   22 1    
    39   18   83 1    
    40   19   20 am   BACKBONE|DICT|INTERRES
    41   19   21 2    
    42   20   84 1    
    43   20   85 1    
    44   22   23 am   BACKBONE|DICT|INTERRES
    45   22   86 1    
    46   23   24 2    
    47   23   25 1    
    48   25   26 1    
    49   25   27 1    
    50   25   87 1    
    51   26   88 1    
    52   26   89 1    
    53   26   90 1    
    54   27   28 am   BACKBONE|DICT|INTERRES
    55   27   91 1    
    56   28   29 2    
    57   28   30 1    
    58   30   31 1    
    59   30   32 1    
    60   30   92 1    
    61   31   93 1    
    62   31   94 1    
    63   31   95 1    
    64   32   33 am   BACKBONE|DICT|INTERRES
    65   32   96 1    
    66   33   34 2    
    67   33   35 1    
    68   35   36 1    
    69   35   37 1    
    70   35   97 1    
    71   36   98 1    
    72   36   99 1    
    73   36  100 1    
    74   37   38 am   BACKBONE|DICT|INTERRES
    75   37  101 1    
    76   38   39 2    
    77   38   40 1    
    78   40   41 1    
    79   40   42 1    
    80   40  102 1    
    81   41  103 1    
    82   41  104 1    
    83   41  105 1    
    84   42   43 am   BACKBONE|DICT|INTERRES
    85   42  106 1    
    86   43   44 2    
    87   43   45 1    
    88   45   46 1    
    89   45   49 1    
    90   45  107 1    
    91   46   47 1    
    92   46  108 1    
    93   46  109 1    
    94   47   48 1    
    95   48  110 1    
    96   48  111 1    
    97   49   50 am   BACKBONE|DICT|INTERRES
    98   49  112 1    
    99   50   51 2    
   100   50   52 1    
   101   52   53 1    
   102   52   54 1    
   103   52  113 1    
   104   53  114 1    
   105   53  115 1    
   106   53  116 1    
   107   54   55 am   BACKBONE|DICT|INTERRES
   108   54  117 1    
   109   55   56 2    
   110   55   57 1    
   111   57   58 1    
   112   57   59 1    
   113   57  118 1    
   114   58  119 1    
   115   58  120 1    
   116   58  121 1    
   117   59   60 am   BACKBONE|DICT|INTERRES
   118   59  122 1    
   119   60   61 2    
   120   60   62 1    
   121   62   63 1    
   122   62   64 1    
   123   62  123 1    
   124   63  124 1    
   125   63  125 1    
   126   63  126 1    
   127   64   65 am   BACKBONE|DICT|INTERRES
   128   64  127 1    
   129   65   66 2    
@<TRIPOS>SUBSTRUCTURE
     1 UNK         1 GROUP             0       ****    0 ROOT    
