@<TRIPOS>MOLECULE
3R135
127   129    1
SMALL
USER_CHARGES


@<TRIPOS>ATOM
      1 CA        -84.0441   24.8680  -69.2060 C.3       0 UNK        -0.1998 
      2 C         -83.7554   25.3837  -70.6074 C.2       0 UNK         0.4909 
      3 O         -84.6556   25.4181  -71.4481 O.2       0 UNK        -0.5240 
      4 N         -82.5048   25.7801  -70.8736 N.am      1 UNK        -0.4739 
      5 CA        -82.0182   26.2866  -72.1620 C.3       1 UNK         0.0864 
      6 C6        -80.8014   27.2355  -71.9813 C.3       11 UNK        -0.0881 
      7 S7        -79.4239   26.5509  -70.9871 S.3       11 UNK        -0.2682 
      8 C8        -78.0473   26.5719  -72.1801 C.3       11 UNK         0.0289 
      9 C9        -77.5061   27.9763  -72.4023 C.ar      11 UNK        -0.0687 
     10 C10       -77.9111   28.7222  -73.5124 C.ar      11 UNK        -0.0823 
     11 C11       -77.3872   29.9975  -73.7414 C.ar      11 UNK        -0.0830 
     12 C12       -76.4704   30.5373  -72.8347 C.ar      11 UNK        -0.1021 
     13 C13       -76.0593   29.8029  -71.7185 C.ar      11 UNK        -0.0753 
     14 C14       -76.5795   28.5218  -71.5091 C.ar      11 UNK        -0.0933 
     15 C15       -75.0642   30.3922  -70.7297 C.3       11 UNK         0.0166 
     16 S16       -73.3438   30.0673  -71.2261 S.3       11 UNK        -0.2615 
     17 C17       -73.0154   31.4850  -72.3340 C.3       11 UNK        -0.0865 
     18 CA        -71.5767   31.5194  -72.9187 C.3       10 UNK         0.0862 
     19 C         -70.4694   31.6864  -71.8421 C.2       10 UNK         0.5551 
     20 N         -70.4665   32.8037  -71.1271 N.am      10 UNK        -0.7319 
     21 O         -69.6108   30.8268  -71.6484 O.2       10 UNK        -0.5018 
     22 N         -71.3301   30.3618  -73.7838 N.am      10 UNK        -0.4509 
     23 C         -71.4223   30.3385  -75.1151 C.2       10 UNK         0.4899 
     24 O         -71.7153   31.3193  -75.7996 O.2       10 UNK        -0.4839 
     25 CA        -71.1567   28.9939  -75.8139 C.3       9 UNK         0.0222 
     26 CB        -69.6486   28.6918  -75.9129 C.3       9 UNK        -0.1966 
     27 N         -71.9104   27.8683  -75.2459 N.am      9 UNK        -0.4218 
     28 C         -71.7680   27.2662  -74.0549 C.2       9 UNK         0.5020 
     29 O         -70.9237   27.5835  -73.2158 O.2       9 UNK        -0.5274 
     30 CA        -72.7368   26.1138  -73.7395 C.3       8 UNK         0.0270 
     31 CB        -74.0344   26.6558  -73.1187 C.3       8 UNK        -0.1976 
     32 N         -73.0638   25.2917  -74.9068 N.am      8 UNK        -0.4313 
     33 C         -72.1986   24.5027  -75.5603 C.2       8 UNK         0.5041 
     34 O         -71.0158   24.3679  -75.2448 O.2       8 UNK        -0.5577 
     35 CA        -72.7449   23.7335  -76.7723 C.3       7 UNK         0.0284 
     36 CB        -73.5094   22.4763  -76.3239 C.3       7 UNK        -0.1958 
     37 N         -73.6193   24.5787  -77.5864 N.am      7 UNK        -0.4454 
     38 C         -73.1928   25.3784  -78.5738 C.2       7 UNK         0.5089 
     39 O         -72.0225   25.4357  -78.9521 O.2       7 UNK        -0.5125 
     40 CA        -74.2448   26.2702  -79.2623 C.3       6 UNK         0.0408 
     41 CB        -74.7871   25.5805  -80.5240 C.3       6 UNK        -0.1791 
     42 N         -75.3674   26.6411  -78.3953 N.am      6 UNK        -0.4762 
     43 C         -75.2650   27.4207  -77.3084 C.2       6 UNK         0.5007 
     44 O         -74.2069   27.9187  -76.9263 O.2       6 UNK        -0.5032 
     45 CA        -76.5444   27.6108  -76.4661 C.3       5 UNK         0.0783 
     46 C46       -77.3889   28.8136  -76.9600 C.3       11 UNK        -0.0857 
     47 S47       -76.7368   30.4238  -76.3992 S.3       11 UNK        -0.2512 
     48 C48       -77.8051   30.7927  -74.9694 C.3       11 UNK         0.0225 
     49 N         -77.3600   26.3915  -76.3724 N.am      5 UNK        -0.4615 
     50 C         -76.9395   25.1999  -75.9249 C.2       4 UNK         0.5053 
     51 O         -75.7867   24.9969  -75.5451 O.2       4 UNK        -0.5105 
     52 CA        -77.9434   24.0327  -75.9152 C.3       4 UNK         0.0263 
     53 CB        -77.8830   23.2500  -74.5914 C.3       4 UNK        -0.1981 
     54 N         -79.3283   24.4431  -76.1667 N.am      4 UNK        -0.4224 
     55 C         -79.8808   24.5918  -77.3811 C.2       3 UNK         0.4895 
     56 O         -79.2381   24.4857  -78.4267 O.2       3 UNK        -0.5091 
     57 CA        -81.3856   24.9438  -77.4445 C.3       3 UNK         0.0250 
     58 CB        -82.0656   24.4107  -78.7238 C.3       3 UNK        -0.1996 
     59 N         -82.1370   24.5483  -76.2445 N.am      3 UNK        -0.4254 
     60 C         -82.2856   23.3108  -75.7443 C.2       2 UNK         0.5004 
     61 O         -81.9219   22.2897  -76.3300 O.2       2 UNK        -0.5226 
     62 CA        -82.9150   23.1936  -74.3371 C.3       2 UNK         0.0269 
     63 CB        -82.3164   22.0130  -73.5431 C.3       2 UNK        -0.1926 
     64 N         -82.8603   24.4136  -73.5114 N.am      2 UNK        -0.4687 
     65 C         -81.7820   25.1382  -73.1717 C.2       1 UNK         0.5165 
     66 O         -80.6583   24.9301  -73.6310 O.2       1 UNK        -0.5079 
     67 H67       -84.8199   25.4722  -68.7366 H         1 UNK         0.0900 
     68 H68       -84.3946   23.8372  -69.2507 H         1 UNK         0.0900 
     69 H69       -83.1592   24.8986  -68.5705 H         1 UNK         0.0900 
     70 H70       -81.7947   25.7056  -70.1578 H         1 UNK         0.2959 
     71 H71       -82.8127   26.8961  -72.5993 H         1 UNK         0.1079 
     72 H72       -81.1330   28.1454  -71.4789 H         1 UNK         0.0837 
     73 H73       -80.4397   27.5664  -72.9546 H         1 UNK         0.0837 
     74 H74       -77.2487   25.9284  -71.8083 H         1 UNK         0.0685 
     75 H75       -78.3700   26.1367  -73.1258 H         1 UNK         0.0685 
     76 H76       -78.6193   28.3012  -74.2115 H         1 UNK         0.1434 
     77 H77       -76.0723   31.5283  -73.0022 H         1 UNK         0.1329 
     78 H78       -76.2621   27.9462  -70.6504 H         1 UNK         0.1335 
     79 H79       -75.2271   31.4652  -70.6180 H         1 UNK         0.0680 
     80 H80       -75.2267   29.9593  -69.7415 H         1 UNK         0.0680 
     81 H81       -73.7294   31.4528  -73.1573 H         1 UNK         0.1032 
     82 H82       -73.2274   32.4095  -71.7947 H         1 UNK         0.1032 
     83 H83       -71.4984   32.4182  -73.5334 H         1 UNK         0.0461 
     84 H84       -71.1545   33.5246  -71.2779 H         1 UNK         0.3453 
     85 H85       -69.7555   32.9312  -70.4238 H         1 UNK         0.3453 
     86 H86       -71.0525   29.5085  -73.3048 H         1 UNK         0.2984 
     87 H87       -71.5306   29.0949  -76.8341 H         1 UNK         0.0554 
     88 H88       -69.1284   29.4895  -76.4446 H         1 UNK         0.0847 
     89 H89       -69.4660   27.7654  -76.4576 H         1 UNK         0.0847 
     90 H90       -69.1813   28.6015  -74.9320 H         1 UNK         0.0847 
     91 H91       -72.7042   27.5861  -75.8168 H         1 UNK         0.3141 
     92 H92       -72.2533   25.4660  -73.0054 H         1 UNK         0.0743 
     93 H93       -74.5454   27.3490  -73.7873 H         1 UNK         0.0784 
     94 H94       -74.7289   25.8517  -72.8751 H         1 UNK         0.0784 
     95 H95       -73.8257   27.1947  -72.1939 H         1 UNK         0.0784 
     96 H96       -74.0404   25.2816  -75.1976 H         1 UNK         0.3213 
     97 H97       -71.8933   23.4082  -77.3744 H         1 UNK         0.0855 
     98 H98       -74.3730   22.7195  -75.7043 H         1 UNK         0.0814 
     99 H99       -72.8649   21.8195  -75.7381 H         1 UNK         0.0814 
    100 H100      -73.8631   21.9020  -77.1802 H         1 UNK         0.0814 
    101 H101      -74.5874   24.6387  -77.2988 H         1 UNK         0.3105 
    102 H102      -73.7426   27.1907  -79.5677 H         1 UNK         0.0547 
    103 H103      -73.9753   25.3147  -81.2026 H         1 UNK         0.0837 
    104 H104      -75.3245   24.6621  -80.2843 H         1 UNK         0.0837 
    105 H105      -75.4647   26.2334  -81.0744 H         1 UNK         0.0837 
    106 H106      -76.2723   26.2557  -78.6272 H         1 UNK         0.3020 
    107 H107      -76.2043   27.8200  -75.4507 H         1 UNK         0.1245 
    108 H108      -78.4182   28.7270  -76.6101 H         1 UNK         0.0781 
    109 H109      -77.4599   28.8245  -78.0495 H         1 UNK         0.0781 
    110 H110      -78.8499   30.5995  -75.2172 H         1 UNK         0.0836 
    111 H111      -77.7424   31.8607  -74.7553 H         1 UNK         0.0836 
    112 H112      -78.3150   26.4600  -76.6893 H         1 UNK         0.3022 
    113 H113      -77.6317   23.3517  -76.7098 H         1 UNK         0.0747 
    114 H114      -78.5668   22.4010  -74.6041 H         1 UNK         0.0793 
    115 H115      -76.8825   22.8544  -74.4112 H         1 UNK         0.0793 
    116 H116      -78.1449   23.8734  -73.7371 H         1 UNK         0.0793 
    117 H117      -79.9064   24.5804  -75.3397 H         1 UNK         0.3047 
    118 H118      -81.4317   26.0332  -77.4811 H         1 UNK         0.0822 
    119 H119      -83.1220   24.6774  -78.7528 H         1 UNK         0.0807 
    120 H120      -81.9910   23.3256  -78.8010 H         1 UNK         0.0807 
    121 H121      -81.6033   24.8307  -79.6180 H         1 UNK         0.0807 
    122 H122      -82.4800   25.3100  -75.6763 H         1 UNK         0.2946 
    123 H123      -83.9724   22.9812  -74.5031 H         1 UNK         0.1144 
    124 H124      -82.7841   21.9159  -72.5633 H         1 UNK         0.0793 
    125 H125      -81.2430   22.1348  -73.3917 H         1 UNK         0.0793 
    126 H126      -82.4671   21.0669  -74.0646 H         1 UNK         0.0793 
    127 H127      -83.7325   24.6754  -73.0593 H         1 UNK         0.2896 
@<TRIPOS>BOND
     1    1    2 1    
     2    1   67 1    
     3    1   68 1    
     4    1   69 1    
     5    2    3 2    
     6    2    4 am   BACKBONE|DICT|INTERRES
     7    4    5 1    
     8    4   70 1    
     9    5    6 1    
    10    5   65 1    
    11    5   71 1    
    12    6    7 1    
    13    6   72 1    
    14    6   73 1    
    15    7    8 1    
    16    8    9 1    
    17    8   74 1    
    18    8   75 1    
    19    9   10 ar   
    20    9   14 ar   
    21   10   11 ar   
    22   10   76 1    
    23   11   12 ar   
    24   11   48 1    
    25   12   13 ar   
    26   12   77 1    
    27   13   14 ar   
    28   13   15 1    
    29   14   78 1    
    30   15   16 1    
    31   15   79 1    
    32   15   80 1    
    33   16   17 1    
    34   17   18 1    
    35   17   81 1    
    36   17   82 1    
    37   18   19 1    
    38   18   22 1    
    39   18   83 1    
    40   19   20 am   BACKBONE|DICT|INTERRES
    41   19   21 2    
    42   20   84 1    
    43   20   85 1    
    44   22   23 am   BACKBONE|DICT|INTERRES
    45   22   86 1    
    46   23   24 2    
    47   23   25 1    
    48   25   26 1    
    49   25   27 1    
    50   25   87 1    
    51   26   88 1    
    52   26   89 1    
    53   26   90 1    
    54   27   28 am   BACKBONE|DICT|INTERRES
    55   27   91 1    
    56   28   29 2    
    57   28   30 1    
    58   30   31 1    
    59   30   32 1    
    60   30   92 1    
    61   31   93 1    
    62   31   94 1    
    63   31   95 1    
    64   32   33 am   BACKBONE|DICT|INTERRES
    65   32   96 1    
    66   33   34 2    
    67   33   35 1    
    68   35   36 1    
    69   35   37 1    
    70   35   97 1    
    71   36   98 1    
    72   36   99 1    
    73   36  100 1    
    74   37   38 am   BACKBONE|DICT|INTERRES
    75   37  101 1    
    76   38   39 2    
    77   38   40 1    
    78   40   41 1    
    79   40   42 1    
    80   40  102 1    
    81   41  103 1    
    82   41  104 1    
    83   41  105 1    
    84   42   43 am   BACKBONE|DICT|INTERRES
    85   42  106 1    
    86   43   44 2    
    87   43   45 1    
    88   45   46 1    
    89   45   49 1    
    90   45  107 1    
    91   46   47 1    
    92   46  108 1    
    93   46  109 1    
    94   47   48 1    
    95   48  110 1    
    96   48  111 1    
    97   49   50 am   BACKBONE|DICT|INTERRES
    98   49  112 1    
    99   50   51 2    
   100   50   52 1    
   101   52   53 1    
   102   52   54 1    
   103   52  113 1    
   104   53  114 1    
   105   53  115 1    
   106   53  116 1    
   107   54   55 am   BACKBONE|DICT|INTERRES
   108   54  117 1    
   109   55   56 2    
   110   55   57 1    
   111   57   58 1    
   112   57   59 1    
   113   57  118 1    
   114   58  119 1    
   115   58  120 1    
   116   58  121 1    
   117   59   60 am   BACKBONE|DICT|INTERRES
   118   59  122 1    
   119   60   61 2    
   120   60   62 1    
   121   62   63 1    
   122   62   64 1    
   123   62  123 1    
   124   63  124 1    
   125   63  125 1    
   126   63  126 1    
   127   64   65 am   BACKBONE|DICT|INTERRES
   128   64  127 1    
   129   65   66 2    
@<TRIPOS>SUBSTRUCTURE
     1 UNK         1 GROUP             0       ****    0 ROOT    
