@<TRIPOS>MOLECULE
3R135
127   129    1
SMALL
USER_CHARGES


@<TRIPOS>ATOM
      1 CA        -83.3921   22.7979  -72.1523 C.3       0 UNK        -0.1998 
      2 C         -83.4072   24.2421  -72.6313 C.2       0 UNK         0.4909 
      3 O         -84.4011   24.6846  -73.2093 O.2       0 UNK        -0.5240 
      4 N         -82.3152   24.9775  -72.3874 N.am      1 UNK        -0.4739 
      5 CA        -82.1038   26.3508  -72.8585 C.3       1 UNK         0.0864 
      6 C6        -81.1918   27.1399  -71.8796 C.3       11 UNK        -0.0881 
      7 S7        -81.5405   28.9352  -71.8727 S.3       11 UNK        -0.2682 
      8 C8        -80.6855   29.4788  -70.3583 C.3       11 UNK         0.0289 
      9 C9        -79.1827   29.2679  -70.4594 C.ar      11 UNK        -0.0687 
     10 C10       -78.6111   28.0902  -69.9702 C.ar      11 UNK        -0.0823 
     11 C11       -77.2439   27.8523  -70.1203 C.ar      11 UNK        -0.0830 
     12 C12       -76.4351   28.8268  -70.7121 C.ar      11 UNK        -0.1021 
     13 C13       -76.9950   30.0056  -71.2096 C.ar      11 UNK        -0.0753 
     14 C14       -78.3700   30.2255  -71.0763 C.ar      11 UNK        -0.0933 
     15 C15       -76.1131   31.0124  -71.9298 C.3       11 UNK         0.0166 
     16 S16       -75.9501   30.5810  -73.6913 S.3       11 UNK        -0.2615 
     17 C17       -74.7241   31.8161  -74.2463 C.3       11 UNK        -0.0865 
     18 CA        -73.5640   31.1932  -75.0675 C.3       10 UNK         0.0862 
     19 C         -72.5930   32.3041  -75.5545 C.2       10 UNK         0.5551 
     20 N         -72.8237   32.8548  -76.7383 N.am      10 UNK        -0.7319 
     21 O         -71.6683   32.7020  -74.8481 O.2       10 UNK        -0.5018 
     22 N         -72.8861   30.1213  -74.3222 N.am      10 UNK        -0.4509 
     23 C         -71.9503   29.2993  -74.8148 C.2       10 UNK         0.4899 
     24 O         -71.5395   29.3531  -75.9747 O.2       10 UNK        -0.4839 
     25 CA        -71.3879   28.2246  -73.8637 C.3       9 UNK         0.0222 
     26 CB        -72.1879   28.0713  -72.5512 C.3       9 UNK        -0.1966 
     27 N         -71.3641   26.9307  -74.5453 N.am      9 UNK        -0.4218 
     28 C         -70.3028   26.3754  -75.1450 C.2       9 UNK         0.5020 
     29 O         -69.1808   26.8839  -75.1678 O.2       9 UNK        -0.5274 
     30 CA        -70.5183   25.0139  -75.8263 C.3       8 UNK         0.0270 
     31 CB        -70.5079   23.8830  -74.7835 C.3       8 UNK        -0.1976 
     32 N         -71.7787   24.9707  -76.5727 N.am      8 UNK        -0.4313 
     33 C         -71.8906   24.7593  -77.8925 C.2       8 UNK         0.5041 
     34 O         -70.9324   24.5421  -78.6358 O.2       8 UNK        -0.5577 
     35 CA        -73.3090   24.7870  -78.5010 C.3       7 UNK         0.0284 
     36 CB        -73.8587   23.3594  -78.6486 C.3       7 UNK        -0.1958 
     37 N         -74.2555   25.5883  -77.7220 N.am      7 UNK        -0.4454 
     38 C         -74.1863   26.9199  -77.5895 C.2       7 UNK         0.5089 
     39 O         -73.4356   27.6278  -78.2600 O.2       7 UNK        -0.5125 
     40 CA        -75.0668   27.5776  -76.5102 C.3       6 UNK         0.0408 
     41 CB        -76.1244   28.4944  -77.1444 C.3       6 UNK        -0.1791 
     42 N         -75.7096   26.6546  -75.5635 N.am      6 UNK        -0.4762 
     43 C         -75.0635   25.8704  -74.6848 C.2       6 UNK         0.5007 
     44 O         -73.8410   25.7237  -74.6867 O.2       6 UNK        -0.5032 
     45 CA        -75.8985   25.1283  -73.6300 C.3       5 UNK         0.0783 
     46 C46       -76.2232   26.0877  -72.4672 C.3       11 UNK        -0.0857 
     47 S47       -76.9740   25.2609  -71.0257 S.3       11 UNK        -0.2512 
     48 C48       -76.6586   26.5048  -69.7273 C.3       11 UNK         0.0225 
     49 N         -77.0995   24.5628  -74.2451 N.am      5 UNK        -0.4615 
     50 C         -77.3435   23.2511  -74.3650 C.2       4 UNK         0.5053 
     51 O         -76.6280   22.3698  -73.8877 O.2       4 UNK        -0.5105 
     52 CA        -78.5853   22.8412  -75.1798 C.3       4 UNK         0.0263 
     53 CB        -79.7885   22.6317  -74.2464 C.3       4 UNK        -0.1981 
     54 N         -78.9349   23.8063  -76.2277 N.am      4 UNK        -0.4224 
     55 C         -78.1343   24.1307  -77.2565 C.2       3 UNK         0.4895 
     56 O         -77.0549   23.5819  -77.4783 O.2       3 UNK        -0.5091 
     57 CA        -78.5690   25.2841  -78.1789 C.3       3 UNK         0.0250 
     58 CB        -79.1085   24.7290  -79.5068 C.3       3 UNK        -0.1996 
     59 N         -79.5541   26.2143  -77.6153 N.am      3 UNK        -0.4254 
     60 C         -79.4469   26.9079  -76.4725 C.2       2 UNK         0.5004 
     61 O         -78.4937   26.8066  -75.6961 O.2       2 UNK        -0.5226 
     62 CA        -80.6137   27.8477  -76.1074 C.3       2 UNK         0.0269 
     63 CB        -81.7557   27.8824  -77.1491 C.3       2 UNK        -0.1926 
     64 N         -81.1600   27.5519  -74.7787 N.am      2 UNK        -0.4687 
     65 C         -81.5816   26.3657  -74.3167 C.2       1 UNK         0.5165 
     66 O         -81.5622   25.3296  -74.9891 O.2       1 UNK        -0.5079 
     67 H67       -84.2123   22.6239  -71.4564 H         1 UNK         0.0900 
     68 H68       -82.4596   22.5446  -71.6482 H         1 UNK         0.0900 
     69 H69       -83.5129   22.1223  -72.9987 H         1 UNK         0.0900 
     70 H70       -81.5253   24.5475  -71.9288 H         1 UNK         0.2959 
     71 H71       -83.0789   26.8432  -72.8807 H         1 UNK         0.1079 
     72 H72       -81.3518   26.7851  -70.8599 H         1 UNK         0.0837 
     73 H73       -80.1347   26.9666  -72.0941 H         1 UNK         0.0837 
     74 H74       -80.8991   30.5355  -70.1910 H         1 UNK         0.0685 
     75 H75       -81.0920   28.9452  -69.4977 H         1 UNK         0.0685 
     76 H76       -79.2384   27.3327  -69.5206 H         1 UNK         0.1434 
     77 H77       -75.3768   28.6449  -70.8390 H         1 UNK         0.1329 
     78 H78       -78.8121   31.1277  -71.4765 H         1 UNK         0.1335 
     79 H79       -76.5290   32.0170  -71.8382 H         1 UNK         0.0680 
     80 H80       -75.1265   31.0384  -71.4645 H         1 UNK         0.0680 
     81 H81       -74.3278   32.3559  -73.3840 H         1 UNK         0.1032 
     82 H82       -75.2544   32.5592  -74.8452 H         1 UNK         0.1032 
     83 H83       -73.9997   30.7242  -75.9523 H         1 UNK         0.0461 
     84 H84       -73.5852   32.5424  -77.3204 H         1 UNK         0.3453 
     85 H85       -72.2149   33.5895  -77.0637 H         1 UNK         0.3453 
     86 H86       -73.1656   30.0154  -73.3594 H         1 UNK         0.2984 
     87 H87       -70.3718   28.5267  -73.6029 H         1 UNK         0.0554 
     88 H88       -71.7809   27.2669  -71.9380 H         1 UNK         0.0847 
     89 H89       -73.2378   27.8411  -72.7370 H         1 UNK         0.0847 
     90 H90       -72.1425   28.9779  -71.9466 H         1 UNK         0.0847 
     91 H91       -72.2589   26.4460  -74.5882 H         1 UNK         0.3141 
     92 H92       -69.6735   24.8564  -76.5002 H         1 UNK         0.0743 
     93 H93       -70.5781   22.9059  -75.2617 H         1 UNK         0.0784 
     94 H94       -69.5841   23.8944  -74.2034 H         1 UNK         0.0784 
     95 H95       -71.3377   23.9715  -74.0808 H         1 UNK         0.0784 
     96 H96       -72.6241   25.1567  -76.0408 H         1 UNK         0.3213 
     97 H97       -73.2294   25.2280  -79.4970 H         1 UNK         0.0855 
     98 H98       -73.9978   22.8770  -77.6801 H         1 UNK         0.0814 
     99 H99       -73.1781   22.7360  -79.2301 H         1 UNK         0.0814 
    100 H100      -74.8191   23.3563  -79.1646 H         1 UNK         0.0814 
    101 H101      -74.9321   25.0855  -77.1640 H         1 UNK         0.3105 
    102 H102      -74.4049   28.2111  -75.9198 H         1 UNK         0.0547 
    103 H103      -75.6557   29.2568  -77.7679 H         1 UNK         0.0837 
    104 H104      -76.8164   27.9403  -77.7766 H         1 UNK         0.0837 
    105 H105      -76.7054   29.0157  -76.3834 H         1 UNK         0.0837 
    106 H106      -76.7260   26.7185  -75.5160 H         1 UNK         0.3020 
    107 H107      -75.2616   24.3318  -73.2377 H         1 UNK         0.1245 
    108 H108      -76.8952   26.8813  -72.8022 H         1 UNK         0.0781 
    109 H109      -75.3094   26.5765  -72.1247 H         1 UNK         0.0781 
    110 H110      -75.5845   26.5859  -69.5525 H         1 UNK         0.0836 
    111 H111      -77.0985   26.1655  -68.7884 H         1 UNK         0.0836 
    112 H112      -77.7379   25.2204  -74.6800 H         1 UNK         0.3022 
    113 H113      -78.3609   21.8915  -75.6698 H         1 UNK         0.0747 
    114 H114      -80.6807   22.3399  -74.8007 H         1 UNK         0.0793 
    115 H115      -79.5844   21.8441  -73.5199 H         1 UNK         0.0793 
    116 H116      -80.0219   23.5368  -73.6855 H         1 UNK         0.0793 
    117 H117      -79.7978   24.3221  -76.1007 H         1 UNK         0.3047 
    118 H118      -77.6690   25.8605  -78.3975 H         1 UNK         0.0822 
    119 H119      -79.3065   25.5279  -80.2216 H         1 UNK         0.0807 
    120 H120      -80.0327   24.1677  -79.3631 H         1 UNK         0.0807 
    121 H121      -78.3871   24.0551  -79.9717 H         1 UNK         0.0807 
    122 H122      -80.3955   26.3459  -78.1578 H         1 UNK         0.2946 
    123 H123      -80.1808   28.8480  -76.0521 H         1 UNK         0.1144 
    124 H124      -82.5229   28.6006  -76.8590 H         1 UNK         0.0793 
    125 H125      -82.2435   26.9128  -77.2587 H         1 UNK         0.0793 
    126 H126      -81.3928   28.1919  -78.1303 H         1 UNK         0.0793 
    127 H127      -81.1704   28.3273  -74.1271 H         1 UNK         0.2896 
@<TRIPOS>BOND
     1    1    2 1    
     2    1   67 1    
     3    1   68 1    
     4    1   69 1    
     5    2    3 2    
     6    2    4 am   BACKBONE|DICT|INTERRES
     7    4    5 1    
     8    4   70 1    
     9    5    6 1    
    10    5   65 1    
    11    5   71 1    
    12    6    7 1    
    13    6   72 1    
    14    6   73 1    
    15    7    8 1    
    16    8    9 1    
    17    8   74 1    
    18    8   75 1    
    19    9   10 ar   
    20    9   14 ar   
    21   10   11 ar   
    22   10   76 1    
    23   11   12 ar   
    24   11   48 1    
    25   12   13 ar   
    26   12   77 1    
    27   13   14 ar   
    28   13   15 1    
    29   14   78 1    
    30   15   16 1    
    31   15   79 1    
    32   15   80 1    
    33   16   17 1    
    34   17   18 1    
    35   17   81 1    
    36   17   82 1    
    37   18   19 1    
    38   18   22 1    
    39   18   83 1    
    40   19   20 am   BACKBONE|DICT|INTERRES
    41   19   21 2    
    42   20   84 1    
    43   20   85 1    
    44   22   23 am   BACKBONE|DICT|INTERRES
    45   22   86 1    
    46   23   24 2    
    47   23   25 1    
    48   25   26 1    
    49   25   27 1    
    50   25   87 1    
    51   26   88 1    
    52   26   89 1    
    53   26   90 1    
    54   27   28 am   BACKBONE|DICT|INTERRES
    55   27   91 1    
    56   28   29 2    
    57   28   30 1    
    58   30   31 1    
    59   30   32 1    
    60   30   92 1    
    61   31   93 1    
    62   31   94 1    
    63   31   95 1    
    64   32   33 am   BACKBONE|DICT|INTERRES
    65   32   96 1    
    66   33   34 2    
    67   33   35 1    
    68   35   36 1    
    69   35   37 1    
    70   35   97 1    
    71   36   98 1    
    72   36   99 1    
    73   36  100 1    
    74   37   38 am   BACKBONE|DICT|INTERRES
    75   37  101 1    
    76   38   39 2    
    77   38   40 1    
    78   40   41 1    
    79   40   42 1    
    80   40  102 1    
    81   41  103 1    
    82   41  104 1    
    83   41  105 1    
    84   42   43 am   BACKBONE|DICT|INTERRES
    85   42  106 1    
    86   43   44 2    
    87   43   45 1    
    88   45   46 1    
    89   45   49 1    
    90   45  107 1    
    91   46   47 1    
    92   46  108 1    
    93   46  109 1    
    94   47   48 1    
    95   48  110 1    
    96   48  111 1    
    97   49   50 am   BACKBONE|DICT|INTERRES
    98   49  112 1    
    99   50   51 2    
   100   50   52 1    
   101   52   53 1    
   102   52   54 1    
   103   52  113 1    
   104   53  114 1    
   105   53  115 1    
   106   53  116 1    
   107   54   55 am   BACKBONE|DICT|INTERRES
   108   54  117 1    
   109   55   56 2    
   110   55   57 1    
   111   57   58 1    
   112   57   59 1    
   113   57  118 1    
   114   58  119 1    
   115   58  120 1    
   116   58  121 1    
   117   59   60 am   BACKBONE|DICT|INTERRES
   118   59  122 1    
   119   60   61 2    
   120   60   62 1    
   121   62   63 1    
   122   62   64 1    
   123   62  123 1    
   124   63  124 1    
   125   63  125 1    
   126   63  126 1    
   127   64   65 am   BACKBONE|DICT|INTERRES
   128   64  127 1    
   129   65   66 2    
@<TRIPOS>SUBSTRUCTURE
     1 UNK         1 GROUP             0       ****    0 ROOT    
