@<TRIPOS>MOLECULE
3R135
127   129    1
SMALL
USER_CHARGES


@<TRIPOS>ATOM
      1 CA        -78.9357   31.6259  -75.6083 C.3       0 UNK        -0.1998 
      2 C         -78.7035   30.2838  -74.9324 C.2       0 UNK         0.4909 
      3 O         -77.5603   29.9309  -74.6528 O.2       0 UNK        -0.5240 
      4 N         -79.7774   29.5244  -74.6783 N.am      1 UNK        -0.4739 
      5 CA        -79.7341   28.2322  -73.9780 C.3       1 UNK         0.0864 
      6 C6        -81.1289   27.8045  -73.4546 C.3       11 UNK        -0.0881 
      7 S7        -81.8437   29.0239  -72.3011 S.3       11 UNK        -0.2682 
      8 C8        -81.3505   28.3326  -70.6888 C.3       11 UNK         0.0289 
      9 C9        -79.8370   28.2855  -70.5294 C.ar      11 UNK        -0.0687 
     10 C10       -79.1591   27.0631  -70.5552 C.ar      11 UNK        -0.0823 
     11 C11       -77.7676   27.0116  -70.4195 C.ar      11 UNK        -0.0830 
     12 C12       -77.0563   28.2072  -70.2459 C.ar      11 UNK        -0.1021 
     13 C13       -77.7232   29.4366  -70.2218 C.ar      11 UNK        -0.0753 
     14 C14       -79.1129   29.4682  -70.3627 C.ar      11 UNK        -0.0933 
     15 C15       -76.9560   30.7343  -70.0172 C.3       11 UNK         0.0166 
     16 S16       -76.3084   31.3902  -71.5866 S.3       11 UNK        -0.2615 
     17 C17       -74.5624   30.8758  -71.4765 C.3       11 UNK        -0.0865 
     18 CA        -73.7279   31.3101  -72.7181 C.3       10 UNK         0.0862 
     19 C         -72.1898   31.2333  -72.4563 C.2       10 UNK         0.5551 
     20 N         -71.3612   30.8008  -73.3998 N.am      10 UNK        -0.7319 
     21 O         -71.7272   31.6158  -71.3839 O.2       10 UNK        -0.5018 
     22 N         -74.1785   30.6779  -73.9725 N.am      10 UNK        -0.4509 
     23 C         -74.1260   29.3704  -74.2588 C.2       10 UNK         0.4899 
     24 O         -73.7558   28.5129  -73.4566 O.2       10 UNK        -0.4839 
     25 CA        -74.4900   28.9360  -75.6963 C.3       9 UNK         0.0222 
     26 CB        -74.7968   30.1033  -76.6635 C.3       9 UNK        -0.1966 
     27 N         -73.4542   28.0702  -76.2741 N.am      9 UNK        -0.4218 
     28 C         -72.1425   28.3489  -76.3832 C.2       9 UNK         0.5020 
     29 O         -71.6349   29.4177  -76.0360 O.2       9 UNK        -0.5274 
     30 CA        -71.2263   27.2592  -76.9729 C.3       8 UNK         0.0270 
     31 CB        -70.5597   26.4565  -75.8438 C.3       8 UNK        -0.1976 
     32 N         -71.9213   26.3358  -77.8700 N.am      8 UNK        -0.4313 
     33 C         -72.4184   26.6611  -79.0711 C.2       8 UNK         0.5041 
     34 O         -72.2346   27.7523  -79.6120 O.2       8 UNK        -0.5577 
     35 CA        -73.2786   25.6037  -79.7927 C.3       7 UNK         0.0284 
     36 CB        -72.4915   24.9755  -80.9550 C.3       7 UNK        -0.1958 
     37 N         -73.8062   24.5297  -78.9385 N.am      7 UNK        -0.4454 
     38 C         -74.6041   24.6928  -77.8735 C.2       7 UNK         0.5089 
     39 O         -74.9424   25.8000  -77.4497 O.2       7 UNK        -0.5125 
     40 CA        -75.1013   23.4074  -77.1785 C.3       6 UNK         0.0408 
     41 CB        -74.0384   22.2848  -77.1413 C.3       6 UNK        -0.1791 
     42 N         -75.6414   23.6568  -75.8347 N.am      6 UNK        -0.4762 
     43 C         -74.9668   24.1001  -74.7613 C.2       6 UNK         0.5007 
     44 O         -73.7600   24.3501  -74.7790 O.2       6 UNK        -0.5032 
     45 CA        -75.7421   24.2632  -73.4333 C.3       5 UNK         0.0783 
     46 C46       -75.5771   25.6807  -72.8168 C.3       11 UNK        -0.0857 
     47 S47       -75.3647   25.6125  -71.0073 S.3       11 UNK        -0.2512 
     48 C48       -77.0834   25.6446  -70.3947 C.3       11 UNK         0.0225 
     49 N         -77.1616   23.9078  -73.5542 N.am      5 UNK        -0.4615 
     50 C         -77.6684   22.6867  -73.3428 C.2       4 UNK         0.5053 
     51 O         -76.9812   21.6987  -73.0856 O.2       4 UNK        -0.5105 
     52 CA        -79.1944   22.5369  -73.4270 C.3       4 UNK         0.0263 
     53 CB        -79.8582   23.0419  -72.1349 C.3       4 UNK        -0.1981 
     54 N         -79.7533   23.2655  -74.5680 N.am      4 UNK        -0.4224 
     55 C         -80.4331   22.7045  -75.5796 C.2       3 UNK         0.4895 
     56 O         -80.6594   21.4970  -75.6680 O.2       3 UNK        -0.5091 
     57 CA        -80.9710   23.6385  -76.6836 C.3       3 UNK         0.0250 
     58 CB        -82.4576   23.9484  -76.4431 C.3       3 UNK        -0.1996 
     59 N         -80.2343   24.8990  -76.7971 N.am      3 UNK        -0.4254 
     60 C         -78.9627   25.0035  -77.2053 C.2       2 UNK         0.5004 
     61 O         -78.3152   24.0569  -77.6484 O.2       2 UNK        -0.5226 
     62 CA        -78.2798   26.3749  -77.0516 C.3       2 UNK         0.0269 
     63 CB        -78.1042   27.0596  -78.4158 C.3       2 UNK        -0.1926 
     64 N         -78.9440   27.2994  -76.1256 N.am      2 UNK        -0.4687 
     65 C         -79.1075   27.0958  -74.8099 C.2       1 UNK         0.5165 
     66 O         -78.8125   26.0368  -74.2519 O.2       1 UNK        -0.5079 
     67 H67       -78.5539   32.4299  -74.9795 H         1 UNK         0.0900 
     68 H68       -78.4109   31.6609  -76.5626 H         1 UNK         0.0900 
     69 H69       -79.9933   31.8123  -75.7934 H         1 UNK         0.0900 
     70 H70       -80.6993   29.8654  -74.9117 H         1 UNK         0.2959 
     71 H71       -79.0675   28.3569  -73.1231 H         1 UNK         0.1079 
     72 H72       -81.0802   26.8360  -72.9522 H         1 UNK         0.0837 
     73 H73       -81.8250   27.6757  -74.2854 H         1 UNK         0.0837 
     74 H74       -81.7877   27.3397  -70.5726 H         1 UNK         0.0685 
     75 H75       -81.7764   28.9486  -69.8956 H         1 UNK         0.0685 
     76 H76       -79.7203   26.1469  -70.6746 H         1 UNK         0.1434 
     77 H77       -75.9832   28.1868  -70.1190 H         1 UNK         0.1329 
     78 H78       -79.6348   30.4155  -70.3482 H         1 UNK         0.1335 
     79 H79       -76.1466   30.5834  -69.3013 H         1 UNK         0.0680 
     80 H80       -77.6099   31.4864  -69.5730 H         1 UNK         0.0680 
     81 H81       -74.5108   29.7965  -71.3287 H         1 UNK         0.1032 
     82 H82       -74.1571   31.3230  -70.5671 H         1 UNK         0.1032 
     83 H83       -73.9104   32.3751  -72.8656 H         1 UNK         0.0461 
     84 H84       -70.3728   30.7794  -73.2078 H         1 UNK         0.3453 
     85 H85       -71.7045   30.4509  -74.2878 H         1 UNK         0.3453 
     86 H86       -74.4902   31.3114  -74.6930 H         1 UNK         0.2984 
     87 H87       -75.3904   28.3251  -75.6132 H         1 UNK         0.0554 
     88 H88       -75.0754   29.7266  -77.6478 H         1 UNK         0.0847 
     89 H89       -73.9393   30.7640  -76.7961 H         1 UNK         0.0847 
     90 H90       -75.6331   30.7069  -76.3106 H         1 UNK         0.0847 
     91 H91       -73.7845   27.1647  -76.5966 H         1 UNK         0.3141 
     92 H92       -70.4438   27.7623  -77.5451 H         1 UNK         0.0743 
     93 H93       -71.2952   25.9180  -75.2439 H         1 UNK         0.0784 
     94 H94       -69.8478   25.7306  -76.2371 H         1 UNK         0.0784 
     95 H95       -70.0104   27.1154  -75.1695 H         1 UNK         0.0784 
     96 H96       -72.1271   25.4166  -77.5066 H         1 UNK         0.3213 
     97 H97       -74.1382   26.1330  -80.2093 H         1 UNK         0.0855 
     98 H98       -71.6340   24.4032  -80.5989 H         1 UNK         0.0814 
     99 H99       -72.1116   25.7436  -81.6306 H         1 UNK         0.0814 
    100 H100      -73.1191   24.3102  -81.5484 H         1 UNK         0.0814 
    101 H101      -73.5751   23.5871  -79.2174 H         1 UNK         0.3105 
    102 H102      -75.9353   23.0409  -77.7765 H         1 UNK         0.0547 
    103 H103      -74.3892   21.4305  -76.5623 H         1 UNK         0.0837 
    104 H104      -73.1011   22.6219  -76.6971 H         1 UNK         0.0837 
    105 H105      -73.8127   21.9122  -78.1407 H         1 UNK         0.0837 
    106 H106      -76.6357   23.5076  -75.7358 H         1 UNK         0.3020 
    107 H107      -75.2608   23.5454  -72.7647 H         1 UNK         0.1245 
    108 H108      -76.4036   26.3445  -73.0752 H         1 UNK         0.0781 
    109 H109      -74.6823   26.1742  -73.1954 H         1 UNK         0.0781 
    110 H110      -77.0796   25.2925  -69.3625 H         1 UNK         0.0836 
    111 H111      -77.6654   24.9169  -70.9600 H         1 UNK         0.0836 
    112 H112      -77.7899   24.6819  -73.7622 H         1 UNK         0.3022 
    113 H113      -79.4040   21.4687  -73.5145 H         1 UNK         0.0747 
    114 H114      -80.9250   22.8181  -72.1292 H         1 UNK         0.0793 
    115 H115      -79.4225   22.5662  -71.2551 H         1 UNK         0.0793 
    116 H116      -79.7455   24.1198  -72.0184 H         1 UNK         0.0793 
    117 H117      -79.5946   24.2677  -74.5850 H         1 UNK         0.3047 
    118 H118      -80.8793   23.1074  -77.6336 H         1 UNK         0.0822 
    119 H119      -82.8760   24.5441  -77.2547 H         1 UNK         0.0807 
    120 H120      -82.6118   24.4931  -75.5106 H         1 UNK         0.0807 
    121 H121      -83.0430   23.0297  -76.3839 H         1 UNK         0.0807 
    122 H122      -80.6971   25.7332  -76.4677 H         1 UNK         0.2946 
    123 H123      -77.2904   26.1783  -76.6369 H         1 UNK         0.1144 
    124 H124      -77.5160   27.9732  -78.3260 H         1 UNK         0.0793 
    125 H125      -79.0634   27.3149  -78.8674 H         1 UNK         0.0793 
    126 H126      -77.5752   26.4075  -79.1126 H         1 UNK         0.0793 
    127 H127      -79.2246   28.1950  -76.4984 H         1 UNK         0.2896 
@<TRIPOS>BOND
     1    1    2 1    
     2    1   67 1    
     3    1   68 1    
     4    1   69 1    
     5    2    3 2    
     6    2    4 am   BACKBONE|DICT|INTERRES
     7    4    5 1    
     8    4   70 1    
     9    5    6 1    
    10    5   65 1    
    11    5   71 1    
    12    6    7 1    
    13    6   72 1    
    14    6   73 1    
    15    7    8 1    
    16    8    9 1    
    17    8   74 1    
    18    8   75 1    
    19    9   10 ar   
    20    9   14 ar   
    21   10   11 ar   
    22   10   76 1    
    23   11   12 ar   
    24   11   48 1    
    25   12   13 ar   
    26   12   77 1    
    27   13   14 ar   
    28   13   15 1    
    29   14   78 1    
    30   15   16 1    
    31   15   79 1    
    32   15   80 1    
    33   16   17 1    
    34   17   18 1    
    35   17   81 1    
    36   17   82 1    
    37   18   19 1    
    38   18   22 1    
    39   18   83 1    
    40   19   20 am   BACKBONE|DICT|INTERRES
    41   19   21 2    
    42   20   84 1    
    43   20   85 1    
    44   22   23 am   BACKBONE|DICT|INTERRES
    45   22   86 1    
    46   23   24 2    
    47   23   25 1    
    48   25   26 1    
    49   25   27 1    
    50   25   87 1    
    51   26   88 1    
    52   26   89 1    
    53   26   90 1    
    54   27   28 am   BACKBONE|DICT|INTERRES
    55   27   91 1    
    56   28   29 2    
    57   28   30 1    
    58   30   31 1    
    59   30   32 1    
    60   30   92 1    
    61   31   93 1    
    62   31   94 1    
    63   31   95 1    
    64   32   33 am   BACKBONE|DICT|INTERRES
    65   32   96 1    
    66   33   34 2    
    67   33   35 1    
    68   35   36 1    
    69   35   37 1    
    70   35   97 1    
    71   36   98 1    
    72   36   99 1    
    73   36  100 1    
    74   37   38 am   BACKBONE|DICT|INTERRES
    75   37  101 1    
    76   38   39 2    
    77   38   40 1    
    78   40   41 1    
    79   40   42 1    
    80   40  102 1    
    81   41  103 1    
    82   41  104 1    
    83   41  105 1    
    84   42   43 am   BACKBONE|DICT|INTERRES
    85   42  106 1    
    86   43   44 2    
    87   43   45 1    
    88   45   46 1    
    89   45   49 1    
    90   45  107 1    
    91   46   47 1    
    92   46  108 1    
    93   46  109 1    
    94   47   48 1    
    95   48  110 1    
    96   48  111 1    
    97   49   50 am   BACKBONE|DICT|INTERRES
    98   49  112 1    
    99   50   51 2    
   100   50   52 1    
   101   52   53 1    
   102   52   54 1    
   103   52  113 1    
   104   53  114 1    
   105   53  115 1    
   106   53  116 1    
   107   54   55 am   BACKBONE|DICT|INTERRES
   108   54  117 1    
   109   55   56 2    
   110   55   57 1    
   111   57   58 1    
   112   57   59 1    
   113   57  118 1    
   114   58  119 1    
   115   58  120 1    
   116   58  121 1    
   117   59   60 am   BACKBONE|DICT|INTERRES
   118   59  122 1    
   119   60   61 2    
   120   60   62 1    
   121   62   63 1    
   122   62   64 1    
   123   62  123 1    
   124   63  124 1    
   125   63  125 1    
   126   63  126 1    
   127   64   65 am   BACKBONE|DICT|INTERRES
   128   64  127 1    
   129   65   66 2    
@<TRIPOS>SUBSTRUCTURE
     1 UNK         1 GROUP             0       ****    0 ROOT    
