@<TRIPOS>MOLECULE
3R135
127   129    1
SMALL
USER_CHARGES


@<TRIPOS>ATOM
      1 CA        -85.7410   25.5706  -70.7687 C.3       0 UNK        -0.1998 
      2 C         -85.1305   26.2873  -71.9637 C.2       0 UNK         0.4909 
      3 O         -85.6416   26.1629  -73.0770 O.2       0 UNK        -0.5240 
      4 N         -84.0453   27.0407  -71.7387 N.am      1 UNK        -0.4739 
      5 CA        -83.2965   27.7716  -72.7691 C.3       1 UNK         0.0864 
      6 C6        -82.3309   28.7937  -72.1184 C.3       11 UNK        -0.0881 
      7 S7        -81.7352   30.0955  -73.2512 S.3       11 UNK        -0.2682 
      8 C8        -80.1622   29.4135  -73.8703 C.3       11 UNK         0.0289 
      9 C9        -79.0717   29.3574  -72.8093 C.ar      11 UNK        -0.0687 
     10 C10       -78.8977   28.2032  -72.0402 C.ar      11 UNK        -0.0823 
     11 C11       -77.8377   28.1036  -71.1357 C.ar      11 UNK        -0.0830 
     12 C12       -76.9489   29.1732  -70.9965 C.ar      11 UNK        -0.1021 
     13 C13       -77.0985   30.3251  -71.7738 C.ar      11 UNK        -0.0753 
     14 C14       -78.1772   30.4220  -72.6600 C.ar      11 UNK        -0.0933 
     15 C15       -76.0638   31.4399  -71.6853 C.3       11 UNK         0.0166 
     16 S16       -75.2153   31.7366  -73.2744 S.3       11 UNK        -0.2615 
     17 C17       -74.4107   30.1340  -73.6337 C.3       11 UNK        -0.0865 
     18 CA        -72.8580   30.2289  -73.6278 C.3       10 UNK         0.0862 
     19 C         -72.2597   29.8386  -72.2504 C.2       10 UNK         0.5551 
     20 N         -72.1881   30.7805  -71.3200 N.am      10 UNK        -0.7319 
     21 O         -71.9017   28.6890  -72.0031 O.2       10 UNK        -0.5018 
     22 N         -72.2712   29.4608  -74.7368 N.am      10 UNK        -0.4509 
     23 C         -71.0886   29.7299  -75.3041 C.2       10 UNK         0.4899 
     24 O         -70.3372   30.6264  -74.9152 O.2       10 UNK        -0.4839 
     25 CA        -70.7142   28.9118  -76.5563 C.3       9 UNK         0.0222 
     26 CB        -69.2570   29.1315  -77.0197 C.3       9 UNK        -0.1966 
     27 N         -71.0382   27.4845  -76.4605 N.am      9 UNK        -0.4218 
     28 C         -70.4593   26.5584  -75.6799 C.2       9 UNK         0.5020 
     29 O         -69.5480   26.8081  -74.8893 O.2       9 UNK        -0.5274 
     30 CA        -70.9538   25.0981  -75.7981 C.3       8 UNK         0.0270 
     31 CB        -71.3261   24.5256  -74.4189 C.3       8 UNK        -0.1976 
     32 N         -72.0916   24.9266  -76.7081 N.am      8 UNK        -0.4313 
     33 C         -72.0154   24.8237  -78.0424 C.2       8 UNK         0.5041 
     34 O         -70.9541   24.7785  -78.6646 O.2       8 UNK        -0.5577 
     35 CA        -73.3477   24.8262  -78.8193 C.3       7 UNK         0.0284 
     36 CB        -73.8859   23.3969  -78.9901 C.3       7 UNK        -0.1958 
     37 N         -74.3754   25.6679  -78.1957 N.am      7 UNK        -0.4454 
     38 C         -74.2715   26.9941  -78.0234 C.2       7 UNK         0.5089 
     39 O         -73.3333   27.6682  -78.4468 O.2       7 UNK        -0.5125 
     40 CA        -75.3420   27.6654  -77.1489 C.3       6 UNK         0.0408 
     41 CB        -76.6009   28.0067  -77.9609 C.3       6 UNK        -0.1791 
     42 N         -75.6912   26.8397  -75.9898 N.am      6 UNK        -0.4762 
     43 C         -74.8521   26.5667  -74.9784 C.2       6 UNK         0.5007 
     44 O         -73.7188   27.0332  -74.8979 O.2       6 UNK        -0.5032 
     45 CA        -75.3590   25.6134  -73.8807 C.3       5 UNK         0.0783 
     46 C46       -76.1271   26.4390  -72.8350 C.3       11 UNK        -0.0857 
     47 S47       -76.9666   25.4745  -71.5305 S.3       11 UNK        -0.2512 
     48 C48       -77.5739   26.7902  -70.4088 C.3       11 UNK         0.0225 
     49 N         -76.1606   24.5305  -74.4498 N.am      5 UNK        -0.4615 
     50 C         -75.6515   23.5333  -75.1846 C.2       4 UNK         0.5053 
     51 O         -74.4499   23.4047  -75.4164 O.2       4 UNK        -0.5105 
     52 CA        -76.6539   22.5454  -75.8063 C.3       4 UNK         0.0263 
     53 CB        -76.9411   21.3893  -74.8356 C.3       4 UNK        -0.1981 
     54 N         -77.9160   23.1812  -76.1966 N.am      4 UNK        -0.4224 
     55 C         -78.0267   24.1750  -77.0906 C.2       3 UNK         0.4895 
     56 O         -77.0752   24.6100  -77.7398 O.2       3 UNK        -0.5091 
     57 CA        -79.4136   24.8181  -77.2720 C.3       3 UNK         0.0250 
     58 CB        -80.0634   24.3275  -78.5754 C.3       3 UNK        -0.1996 
     59 N         -80.3328   24.5806  -76.1522 N.am      3 UNK        -0.4254 
     60 C         -80.2089   25.1165  -74.9292 C.2       2 UNK         0.5004 
     61 O         -79.2852   25.8615  -74.5960 O.2       2 UNK        -0.5226 
     62 CA        -81.2573   24.6826  -73.8876 C.3       2 UNK         0.0269 
     63 CB        -80.6154   23.7358  -72.8595 C.3       2 UNK        -0.1926 
     64 N         -81.8946   25.7949  -73.1749 N.am      2 UNK        -0.4687 
     65 C         -82.5830   26.8006  -73.7384 C.2       1 UNK         0.5165 
     66 O         -82.7168   26.9456  -74.9545 O.2       1 UNK        -0.5079 
     67 H67       -86.7740   25.8878  -70.6287 H         1 UNK         0.0900 
     68 H68       -85.1961   25.7751  -69.8473 H         1 UNK         0.0900 
     69 H69       -85.7346   24.4936  -70.9342 H         1 UNK         0.0900 
     70 H70       -83.6836   27.1093  -70.7979 H         1 UNK         0.2959 
     71 H71       -84.0280   28.3302  -73.3583 H         1 UNK         0.1079 
     72 H72       -82.8604   29.3228  -71.3242 H         1 UNK         0.0837 
     73 H73       -81.5049   28.2969  -71.6148 H         1 UNK         0.0837 
     74 H74       -79.8259   30.0334  -74.7027 H         1 UNK         0.0685 
     75 H75       -80.3234   28.4225  -74.2939 H         1 UNK         0.0685 
     76 H76       -79.5412   27.3484  -72.1964 H         1 UNK         0.1434 
     77 H77       -76.1061   29.0853  -70.3244 H         1 UNK         0.1329 
     78 H78       -78.2887   31.3076  -73.2706 H         1 UNK         0.1335 
     79 H79       -76.5602   32.3597  -71.3735 H         1 UNK         0.0680 
     80 H80       -75.3147   31.2202  -70.9228 H         1 UNK         0.0680 
     81 H81       -74.7697   29.8364  -74.6198 H         1 UNK         0.1032 
     82 H82       -74.7706   29.3573  -72.9582 H         1 UNK         0.1032 
     83 H83       -72.5868   31.2712  -73.8101 H         1 UNK         0.0461 
     84 H84       -71.8156   30.5483  -70.4128 H         1 UNK         0.3453 
     85 H85       -72.4968   31.7209  -71.5112 H         1 UNK         0.3453 
     86 H86       -72.7734   28.6194  -75.0103 H         1 UNK         0.2984 
     87 H87       -71.3553   29.2965  -77.3505 H         1 UNK         0.0554 
     88 H88       -69.0756   30.1818  -77.2511 H         1 UNK         0.0847 
     89 H89       -69.0363   28.5607  -77.9216 H         1 UNK         0.0847 
     90 H90       -68.5373   28.8422  -76.2535 H         1 UNK         0.0847 
     91 H91       -71.7981   27.1856  -77.0607 H         1 UNK         0.3141 
     92 H92       -70.1163   24.5131  -76.1837 H         1 UNK         0.0743 
     93 H93       -70.4632   24.5200  -73.7518 H         1 UNK         0.0784 
     94 H94       -72.1039   25.1149  -73.9344 H         1 UNK         0.0784 
     95 H95       -71.6811   23.4977  -74.4959 H         1 UNK         0.0784 
     96 H96       -73.0084   24.8992  -76.2783 H         1 UNK         0.3213 
     97 H97       -73.1474   25.2352  -79.8120 H         1 UNK         0.0855 
     98 H98       -74.0972   22.9257  -78.0304 H         1 UNK         0.0814 
     99 H99       -73.1608   22.7680  -79.5083 H         1 UNK         0.0814 
    100 H100      -74.8044   23.3856  -79.5774 H         1 UNK         0.0814 
    101 H101      -75.2188   25.2059  -77.8642 H         1 UNK         0.3105 
    102 H102      -74.9239   28.6026  -76.7761 H         1 UNK         0.0547 
    103 H103      -76.3589   28.6870  -78.7784 H         1 UNK         0.0837 
    104 H104      -77.0581   27.1226  -78.4040 H         1 UNK         0.0837 
    105 H105      -77.3512   28.4992  -77.3423 H         1 UNK         0.0837 
    106 H106      -76.6009   26.4000  -75.9965 H         1 UNK         0.3020 
    107 H107      -74.4884   25.1697  -73.3928 H         1 UNK         0.1245 
    108 H108      -76.8854   27.0349  -73.3456 H         1 UNK         0.0781 
    109 H109      -75.4458   27.1402  -72.3498 H         1 UNK         0.0781 
    110 H110      -78.4883   26.4501  -69.9210 H         1 UNK         0.0836 
    111 H111      -76.8410   26.9362  -69.6138 H         1 UNK         0.0836 
    112 H112      -77.1592   24.5869  -74.3016 H         1 UNK         0.3022 
    113 H113      -76.1957   22.1340  -76.7081 H         1 UNK         0.0747 
    114 H114      -76.0173   20.8862  -74.5458 H         1 UNK         0.0793 
    115 H115      -77.5869   20.6386  -75.2914 H         1 UNK         0.0793 
    116 H116      -77.4226   21.7382  -73.9209 H         1 UNK         0.0793 
    117 H117      -78.7505   22.8722  -75.7213 H         1 UNK         0.3047 
    118 H118      -79.2580   25.8962  -77.3534 H         1 UNK         0.0822 
    119 H119      -81.0068   24.8396  -78.7662 H         1 UNK         0.0807 
    120 H120      -80.2604   23.2550  -78.5514 H         1 UNK         0.0807 
    121 H121      -79.4146   24.5202  -79.4314 H         1 UNK         0.0807 
    122 H122      -81.1186   23.9746  -76.3416 H         1 UNK         0.2946 
    123 H123      -82.0536   24.1392  -74.4010 H         1 UNK         0.1144 
    124 H124      -80.1538   22.8771  -73.3486 H         1 UNK         0.0793 
    125 H125      -81.3549   23.3469  -72.1592 H         1 UNK         0.0793 
    126 H126      -79.8372   24.2377  -72.2822 H         1 UNK         0.0793 
    127 H127      -81.8571   25.7564  -72.1674 H         1 UNK         0.2896 
@<TRIPOS>BOND
     1    1    2 1    
     2    1   67 1    
     3    1   68 1    
     4    1   69 1    
     5    2    3 2    
     6    2    4 am   BACKBONE|DICT|INTERRES
     7    4    5 1    
     8    4   70 1    
     9    5    6 1    
    10    5   65 1    
    11    5   71 1    
    12    6    7 1    
    13    6   72 1    
    14    6   73 1    
    15    7    8 1    
    16    8    9 1    
    17    8   74 1    
    18    8   75 1    
    19    9   10 ar   
    20    9   14 ar   
    21   10   11 ar   
    22   10   76 1    
    23   11   12 ar   
    24   11   48 1    
    25   12   13 ar   
    26   12   77 1    
    27   13   14 ar   
    28   13   15 1    
    29   14   78 1    
    30   15   16 1    
    31   15   79 1    
    32   15   80 1    
    33   16   17 1    
    34   17   18 1    
    35   17   81 1    
    36   17   82 1    
    37   18   19 1    
    38   18   22 1    
    39   18   83 1    
    40   19   20 am   BACKBONE|DICT|INTERRES
    41   19   21 2    
    42   20   84 1    
    43   20   85 1    
    44   22   23 am   BACKBONE|DICT|INTERRES
    45   22   86 1    
    46   23   24 2    
    47   23   25 1    
    48   25   26 1    
    49   25   27 1    
    50   25   87 1    
    51   26   88 1    
    52   26   89 1    
    53   26   90 1    
    54   27   28 am   BACKBONE|DICT|INTERRES
    55   27   91 1    
    56   28   29 2    
    57   28   30 1    
    58   30   31 1    
    59   30   32 1    
    60   30   92 1    
    61   31   93 1    
    62   31   94 1    
    63   31   95 1    
    64   32   33 am   BACKBONE|DICT|INTERRES
    65   32   96 1    
    66   33   34 2    
    67   33   35 1    
    68   35   36 1    
    69   35   37 1    
    70   35   97 1    
    71   36   98 1    
    72   36   99 1    
    73   36  100 1    
    74   37   38 am   BACKBONE|DICT|INTERRES
    75   37  101 1    
    76   38   39 2    
    77   38   40 1    
    78   40   41 1    
    79   40   42 1    
    80   40  102 1    
    81   41  103 1    
    82   41  104 1    
    83   41  105 1    
    84   42   43 am   BACKBONE|DICT|INTERRES
    85   42  106 1    
    86   43   44 2    
    87   43   45 1    
    88   45   46 1    
    89   45   49 1    
    90   45  107 1    
    91   46   47 1    
    92   46  108 1    
    93   46  109 1    
    94   47   48 1    
    95   48  110 1    
    96   48  111 1    
    97   49   50 am   BACKBONE|DICT|INTERRES
    98   49  112 1    
    99   50   51 2    
   100   50   52 1    
   101   52   53 1    
   102   52   54 1    
   103   52  113 1    
   104   53  114 1    
   105   53  115 1    
   106   53  116 1    
   107   54   55 am   BACKBONE|DICT|INTERRES
   108   54  117 1    
   109   55   56 2    
   110   55   57 1    
   111   57   58 1    
   112   57   59 1    
   113   57  118 1    
   114   58  119 1    
   115   58  120 1    
   116   58  121 1    
   117   59   60 am   BACKBONE|DICT|INTERRES
   118   59  122 1    
   119   60   61 2    
   120   60   62 1    
   121   62   63 1    
   122   62   64 1    
   123   62  123 1    
   124   63  124 1    
   125   63  125 1    
   126   63  126 1    
   127   64   65 am   BACKBONE|DICT|INTERRES
   128   64  127 1    
   129   65   66 2    
@<TRIPOS>SUBSTRUCTURE
     1 UNK         1 GROUP             0       ****    0 ROOT    
