@<TRIPOS>MOLECULE
3R135
127   129    1
SMALL
USER_CHARGES


@<TRIPOS>ATOM
      1 CA        -85.7391   26.5775  -71.2290 C.3       0 UNK        -0.1998 
      2 C         -84.4030   26.8477  -71.9041 C.2       0 UNK         0.4909 
      3 O         -83.3588   26.5040  -71.3483 O.2       0 UNK        -0.5240 
      4 N         -84.4306   27.4584  -73.0979 N.am      1 UNK        -0.4739 
      5 CA        -83.2850   27.8013  -73.9544 C.3       1 UNK         0.0864 
      6 C6        -82.2182   28.6716  -73.2358 C.3       11 UNK        -0.0881 
      7 S7        -81.3363   29.8117  -74.3525 S.3       11 UNK        -0.2682 
      8 C8        -80.3556   30.7830  -73.1584 C.3       11 UNK         0.0289 
      9 C9        -79.0208   30.1196  -72.8449 C.ar      11 UNK        -0.0687 
     10 C10       -78.9604   29.0310  -71.9699 C.ar      11 UNK        -0.0823 
     11 C11       -77.7485   28.3849  -71.7194 C.ar      11 UNK        -0.0830 
     12 C12       -76.5807   28.8697  -72.3095 C.ar      11 UNK        -0.1021 
     13 C13       -76.6143   29.9805  -73.1566 C.ar      11 UNK        -0.0753 
     14 C14       -77.8413   30.5948  -73.4292 C.ar      11 UNK        -0.0933 
     15 C15       -75.3360   30.4939  -73.8064 C.3       11 UNK         0.0166 
     16 S16       -74.3274   31.4907  -72.6630 S.3       11 UNK        -0.2615 
     17 C17       -73.2519   30.2312  -71.8851 C.3       11 UNK        -0.0865 
     18 CA        -71.8524   30.1571  -72.5444 C.3       10 UNK         0.0862 
     19 C         -70.9140   29.2106  -71.7537 C.2       10 UNK         0.5551 
     20 N         -69.9731   29.7568  -70.9932 N.am      10 UNK        -0.7319 
     21 O         -71.0623   27.9897  -71.7907 O.2       10 UNK        -0.5018 
     22 N         -71.9461   29.7270  -73.9437 N.am      10 UNK        -0.4509 
     23 C         -71.1053   30.1053  -74.9113 C.2       10 UNK         0.4899 
     24 O         -70.1661   30.8851  -74.7414 O.2       10 UNK        -0.4839 
     25 CA        -71.3835   29.5181  -76.3063 C.3       9 UNK         0.0222 
     26 CB        -70.3019   29.8779  -77.3475 C.3       9 UNK        -0.1966 
     27 N         -71.6239   28.0715  -76.2752 N.am      9 UNK        -0.4218 
     28 C         -70.7676   27.1074  -75.8954 C.2       9 UNK         0.5020 
     29 O         -69.6275   27.3261  -75.4833 O.2       9 UNK        -0.5274 
     30 CA        -71.2422   25.6416  -75.9969 C.3       8 UNK         0.0270 
     31 CB        -71.4232   25.0337  -74.5960 C.3       8 UNK        -0.1976 
     32 N         -72.4777   25.4669  -76.7676 N.am      8 UNK        -0.4313 
     33 C         -72.5849   25.6459  -78.0920 C.2       8 UNK         0.5041 
     34 O         -71.6267   25.8778  -78.8301 O.2       8 UNK        -0.5577 
     35 CA        -74.0002   25.6033  -78.6927 C.3       7 UNK         0.0284 
     36 CB        -74.3210   24.1902  -79.2046 C.3       7 UNK        -0.1958 
     37 N         -75.0475   26.0451  -77.7632 N.am      7 UNK        -0.4454 
     38 C         -75.1563   27.2829  -77.2558 C.2       7 UNK         0.5089 
     39 O         -74.3810   28.2002  -77.5250 O.2       7 UNK        -0.5125 
     40 CA        -76.2725   27.5216  -76.2234 C.3       6 UNK         0.0408 
     41 CB        -77.6522   27.6116  -76.8911 C.3       6 UNK        -0.1791 
     42 N         -76.2808   26.4943  -75.1807 N.am      6 UNK        -0.4762 
     43 C         -75.2912   26.3165  -74.2909 C.2       6 UNK         0.5007 
     44 O         -74.3167   27.0655  -74.1985 O.2       6 UNK        -0.5032 
     45 CA        -75.3537   25.0608  -73.3977 C.3       5 UNK         0.0783 
     46 C46       -75.8485   25.3425  -71.9576 C.3       11 UNK        -0.0857 
     47 S47       -77.6471   25.6191  -71.7918 S.3       11 UNK        -0.2512 
     48 C48       -77.7080   27.1596  -70.8195 C.3       11 UNK         0.0225 
     49 N         -76.0664   23.9530  -74.0407 N.am      5 UNK        -0.4615 
     50 C         -75.5535   23.2310  -75.0448 C.2       4 UNK         0.5053 
     51 O         -74.4380   23.4304  -75.5271 O.2       4 UNK        -0.5105 
     52 CA        -76.4442   22.1201  -75.6222 C.3       4 UNK         0.0263 
     53 CB        -76.6087   20.9669  -74.6183 C.3       4 UNK        -0.1981 
     54 N         -77.7627   22.5961  -76.0505 N.am      4 UNK        -0.4224 
     55 C         -77.9683   23.5081  -77.0117 C.2       3 UNK         0.4895 
     56 O         -77.0660   24.0973  -77.6017 O.2       3 UNK        -0.5091 
     57 CA        -79.4227   23.8222  -77.3929 C.3       3 UNK         0.0250 
     58 CB        -79.8876   22.8976  -78.5293 C.3       3 UNK        -0.1996 
     59 N         -80.3691   23.7403  -76.2792 N.am      3 UNK        -0.4254 
     60 C         -80.3601   24.5503  -75.2124 C.2       2 UNK         0.5004 
     61 O         -79.4859   25.3910  -74.9904 O.2       2 UNK        -0.5226 
     62 CA        -81.5216   24.3678  -74.2206 C.3       2 UNK         0.0269 
     63 CB        -81.0461   23.6150  -72.9678 C.3       2 UNK        -0.1926 
     64 N         -82.1285   25.6374  -73.8153 N.am      2 UNK        -0.4687 
     65 C         -82.6829   26.5489  -74.6278 C.2       1 UNK         0.5165 
     66 O         -82.7825   26.4105  -75.8482 O.2       1 UNK        -0.5079 
     67 H67       -85.8671   25.5076  -71.0671 H         1 UNK         0.0900 
     68 H68       -85.7766   27.0758  -70.2606 H         1 UNK         0.0900 
     69 H69       -86.5785   26.9334  -71.8262 H         1 UNK         0.0900 
     70 H70       -85.3310   27.6872  -73.4973 H         1 UNK         0.2959 
     71 H71       -83.7158   28.4035  -74.7566 H         1 UNK         0.1079 
     72 H72       -82.6981   29.2840  -72.4711 H         1 UNK         0.0837 
     73 H73       -81.5028   28.0434  -72.7089 H         1 UNK         0.0837 
     74 H74       -80.1895   31.7765  -73.5776 H         1 UNK         0.0685 
     75 H75       -80.9229   30.9364  -72.2393 H         1 UNK         0.0685 
     76 H76       -79.8585   28.6726  -71.4902 H         1 UNK         0.1434 
     77 H77       -75.6481   28.3650  -72.1199 H         1 UNK         0.1329 
     78 H78       -77.8791   31.4417  -74.1006 H         1 UNK         0.1335 
     79 H79       -74.7484   29.6608  -74.1893 H         1 UNK         0.0680 
     80 H80       -75.5798   31.1085  -74.6742 H         1 UNK         0.0680 
     81 H81       -73.7253   29.2517  -71.9038 H         1 UNK         0.1032 
     82 H82       -73.1568   30.4956  -70.8302 H         1 UNK         0.1032 
     83 H83       -71.4279   31.1632  -72.5156 H         1 UNK         0.0461 
     84 H84       -69.8491   30.7577  -70.9530 H         1 UNK         0.3453 
     85 H85       -69.3643   29.1559  -70.4598 H         1 UNK         0.3453 
     86 H86       -72.6432   29.0240  -74.1477 H         1 UNK         0.2984 
     87 H87       -72.3184   29.9695  -76.6416 H         1 UNK         0.0554 
     88 H88       -70.2149   30.9591  -77.4619 H         1 UNK         0.0847 
     89 H89       -70.5440   29.4674  -78.3279 H         1 UNK         0.0847 
     90 H90       -69.3192   29.5027  -77.0601 H         1 UNK         0.0847 
     91 H91       -72.5445   27.7898  -76.5952 H         1 UNK         0.3141 
     92 H92       -70.4544   25.0833  -76.5067 H         1 UNK         0.0743 
     93 H93       -70.4783   25.0306  -74.0510 H         1 UNK         0.0784 
     94 H94       -72.1333   25.6034  -73.9977 H         1 UNK         0.0784 
     95 H95       -71.7710   24.0017  -74.6473 H         1 UNK         0.0784 
     96 H96       -73.3075   25.1949  -76.2535 H         1 UNK         0.3213 
     97 H97       -74.0107   26.2850  -79.5457 H         1 UNK         0.0855 
     98 H98       -74.3692   23.4681  -78.3883 H         1 UNK         0.0814 
     99 H99       -73.5593   23.8437  -79.9044 H         1 UNK         0.0814 
    100 H100      -75.2764   24.1663  -79.7290 H         1 UNK         0.0814 
    101 H101      -75.7520   25.3491  -77.5202 H         1 UNK         0.3105 
    102 H102      -76.0812   28.4815  -75.7432 H         1 UNK         0.0547 
    103 H103      -77.9217   26.6849  -77.3957 H         1 UNK         0.0837 
    104 H104      -77.6722   28.4071  -77.6369 H         1 UNK         0.0837 
    105 H105      -78.4306   27.8324  -76.1597 H         1 UNK         0.0837 
    106 H106      -77.0684   25.8584  -75.1675 H         1 UNK         0.3020 
    107 H107      -74.3140   24.7420  -73.2919 H         1 UNK         0.1245 
    108 H108      -75.2911   26.1737  -71.5242 H         1 UNK         0.0781 
    109 H109      -75.6047   24.4846  -71.3291 H         1 UNK         0.0781 
    110 H110      -76.8604   27.2172  -70.1351 H         1 UNK         0.0836 
    111 H111      -78.5972   27.1305  -70.1880 H         1 UNK         0.0836 
    112 H112      -77.0023   23.7655  -73.7107 H         1 UNK         0.3022 
    113 H113      -75.9372   21.7264  -76.5059 H         1 UNK         0.0747 
    114 H114      -77.1345   20.1238  -75.0670 H         1 UNK         0.0793 
    115 H115      -75.6371   20.5988  -74.2851 H         1 UNK         0.0793 
    116 H116      -77.1632   21.2732  -73.7306 H         1 UNK         0.0793 
    117 H117      -78.5684   22.1697  -75.6174 H         1 UNK         0.3047 
    118 H118      -79.4457   24.8486  -77.7646 H         1 UNK         0.0822 
    119 H119      -80.8787   23.1759  -78.8880 H         1 UNK         0.0807 
    120 H120      -79.9237   21.8539  -78.2142 H         1 UNK         0.0807 
    121 H121      -79.2094   22.9569  -79.3821 H         1 UNK         0.0807 
    122 H122      -81.1184   23.0700  -76.3766 H         1 UNK         0.2946 
    123 H123      -82.3052   23.7784  -74.7012 H         1 UNK         0.1144 
    124 H124      -81.8730   23.4169  -72.2855 H         1 UNK         0.0793 
    125 H125      -80.2914   24.1827  -72.4222 H         1 UNK         0.0793 
    126 H126      -80.6047   22.6527  -73.2303 H         1 UNK         0.0793 
    127 H127      -82.1653   25.8305  -72.8197 H         1 UNK         0.2896 
@<TRIPOS>BOND
     1    1    2 1    
     2    1   67 1    
     3    1   68 1    
     4    1   69 1    
     5    2    3 2    
     6    2    4 am   BACKBONE|DICT|INTERRES
     7    4    5 1    
     8    4   70 1    
     9    5    6 1    
    10    5   65 1    
    11    5   71 1    
    12    6    7 1    
    13    6   72 1    
    14    6   73 1    
    15    7    8 1    
    16    8    9 1    
    17    8   74 1    
    18    8   75 1    
    19    9   10 ar   
    20    9   14 ar   
    21   10   11 ar   
    22   10   76 1    
    23   11   12 ar   
    24   11   48 1    
    25   12   13 ar   
    26   12   77 1    
    27   13   14 ar   
    28   13   15 1    
    29   14   78 1    
    30   15   16 1    
    31   15   79 1    
    32   15   80 1    
    33   16   17 1    
    34   17   18 1    
    35   17   81 1    
    36   17   82 1    
    37   18   19 1    
    38   18   22 1    
    39   18   83 1    
    40   19   20 am   BACKBONE|DICT|INTERRES
    41   19   21 2    
    42   20   84 1    
    43   20   85 1    
    44   22   23 am   BACKBONE|DICT|INTERRES
    45   22   86 1    
    46   23   24 2    
    47   23   25 1    
    48   25   26 1    
    49   25   27 1    
    50   25   87 1    
    51   26   88 1    
    52   26   89 1    
    53   26   90 1    
    54   27   28 am   BACKBONE|DICT|INTERRES
    55   27   91 1    
    56   28   29 2    
    57   28   30 1    
    58   30   31 1    
    59   30   32 1    
    60   30   92 1    
    61   31   93 1    
    62   31   94 1    
    63   31   95 1    
    64   32   33 am   BACKBONE|DICT|INTERRES
    65   32   96 1    
    66   33   34 2    
    67   33   35 1    
    68   35   36 1    
    69   35   37 1    
    70   35   97 1    
    71   36   98 1    
    72   36   99 1    
    73   36  100 1    
    74   37   38 am   BACKBONE|DICT|INTERRES
    75   37  101 1    
    76   38   39 2    
    77   38   40 1    
    78   40   41 1    
    79   40   42 1    
    80   40  102 1    
    81   41  103 1    
    82   41  104 1    
    83   41  105 1    
    84   42   43 am   BACKBONE|DICT|INTERRES
    85   42  106 1    
    86   43   44 2    
    87   43   45 1    
    88   45   46 1    
    89   45   49 1    
    90   45  107 1    
    91   46   47 1    
    92   46  108 1    
    93   46  109 1    
    94   47   48 1    
    95   48  110 1    
    96   48  111 1    
    97   49   50 am   BACKBONE|DICT|INTERRES
    98   49  112 1    
    99   50   51 2    
   100   50   52 1    
   101   52   53 1    
   102   52   54 1    
   103   52  113 1    
   104   53  114 1    
   105   53  115 1    
   106   53  116 1    
   107   54   55 am   BACKBONE|DICT|INTERRES
   108   54  117 1    
   109   55   56 2    
   110   55   57 1    
   111   57   58 1    
   112   57   59 1    
   113   57  118 1    
   114   58  119 1    
   115   58  120 1    
   116   58  121 1    
   117   59   60 am   BACKBONE|DICT|INTERRES
   118   59  122 1    
   119   60   61 2    
   120   60   62 1    
   121   62   63 1    
   122   62   64 1    
   123   62  123 1    
   124   63  124 1    
   125   63  125 1    
   126   63  126 1    
   127   64   65 am   BACKBONE|DICT|INTERRES
   128   64  127 1    
   129   65   66 2    
@<TRIPOS>SUBSTRUCTURE
     1 UNK         1 GROUP             0       ****    0 ROOT    
