@<TRIPOS>MOLECULE
3R135
127   129    1
SMALL
USER_CHARGES


@<TRIPOS>ATOM
      1 CA        -81.6302   24.8842  -72.5103 C.3       0 UNK        -0.1998 
      2 C         -81.9191   25.9499  -73.5524 C.2       0 UNK         0.4909 
      3 O         -82.7269   25.7200  -74.4529 O.2       0 UNK        -0.5240 
      4 N         -81.2694   27.1147  -73.4337 N.am      1 UNK        -0.4739 
      5 CA        -81.4514   28.2918  -74.2921 C.3       1 UNK         0.0864 
      6 C6        -80.6763   29.5230  -73.7603 C.3       11 UNK        -0.0881 
      7 S7        -81.1356   29.9250  -72.0393 S.3       11 UNK        -0.2682 
      8 C8        -79.5336   30.3971  -71.3098 C.3       11 UNK         0.0289 
      9 C9        -78.5052   29.2707  -71.3126 C.ar      11 UNK        -0.0687 
     10 C10       -78.7505   28.0757  -70.6246 C.ar      11 UNK        -0.0823 
     11 C11       -77.7807   27.0669  -70.5821 C.ar      11 UNK        -0.0830 
     12 C12       -76.5551   27.2736  -71.2196 C.ar      11 UNK        -0.1021 
     13 C13       -76.3080   28.4466  -71.9339 C.ar      11 UNK        -0.0753 
     14 C14       -77.2856   29.4436  -71.9770 C.ar      11 UNK        -0.0933 
     15 C15       -74.9874   28.6168  -72.6677 C.3       11 UNK         0.0166 
     16 S16       -73.7696   29.5049  -71.6492 S.3       11 UNK        -0.2615 
     17 C17       -72.2172   29.1241  -72.5349 C.3       11 UNK        -0.0865 
     18 CA        -71.8259   30.2076  -73.5737 C.3       10 UNK         0.0862 
     19 C         -70.3844   29.9781  -74.1183 C.2       10 UNK         0.5551 
     20 N         -70.1698   29.8099  -75.4187 N.am      10 UNK        -0.7319 
     21 O         -69.4343   29.9651  -73.3398 O.2       10 UNK        -0.5018 
     22 N         -72.8422   30.3326  -74.6275 N.am      10 UNK        -0.4509 
     23 C         -73.0847   31.4467  -75.3298 C.2       10 UNK         0.4899 
     24 O         -72.5423   32.5284  -75.0980 O.2       10 UNK        -0.4839 
     25 CA        -74.1047   31.3376  -76.4857 C.3       9 UNK         0.0222 
     26 CB        -73.8225   32.3514  -77.6151 C.3       9 UNK        -0.1966 
     27 N         -74.2458   29.9810  -77.0363 N.am      9 UNK        -0.4218 
     28 C         -73.2747   29.2221  -77.5652 C.2       9 UNK         0.5020 
     29 O         -72.1002   29.5792  -77.6888 O.2       9 UNK        -0.5274 
     30 CA        -73.6828   27.8063  -78.0005 C.3       8 UNK         0.0270 
     31 CB        -73.7569   27.7062  -79.5323 C.3       8 UNK        -0.1976 
     32 N         -72.7494   26.8005  -77.4885 N.am      8 UNK        -0.4313 
     33 C         -72.5437   26.5441  -76.1900 C.2       8 UNK         0.5041 
     34 O         -73.1413   27.1137  -75.2737 O.2       8 UNK        -0.5577 
     35 CA        -71.4579   25.5068  -75.8598 C.3       7 UNK         0.0284 
     36 CB        -70.1657   26.2095  -75.4132 C.3       7 UNK        -0.1958 
     37 N         -71.8918   24.5858  -74.8078 N.am      7 UNK        -0.4454 
     38 C         -72.8184   23.6315  -74.9660 C.2       7 UNK         0.5089 
     39 O         -73.3780   23.3975  -76.0386 O.2       7 UNK        -0.5125 
     40 CA        -73.1910   22.7863  -73.7369 C.3       6 UNK         0.0408 
     41 CB        -72.2711   22.9795  -72.5133 C.3       6 UNK        -0.1791 
     42 N         -74.5593   23.1261  -73.3760 N.am      6 UNK        -0.4762 
     43 C         -75.5291   22.2924  -72.9885 C.2       6 UNK         0.5007 
     44 O         -75.3705   21.0813  -72.8299 O.2       6 UNK        -0.5032 
     45 CA        -76.9173   22.9238  -72.7375 C.3       5 UNK         0.0783 
     46 C46       -76.9304   23.6555  -71.3659 C.3       11 UNK        -0.0857 
     47 S47       -78.5365   24.4057  -70.9344 S.3       11 UNK        -0.2512 
     48 C48       -78.0424   25.7693  -69.8266 C.3       11 UNK         0.0225 
     49 N         -77.3790   23.7267  -73.8850 N.am      5 UNK        -0.4615 
     50 C         -76.8922   24.8901  -74.3340 C.2       4 UNK         0.5053 
     51 O         -75.9773   25.4939  -73.7776 O.2       4 UNK        -0.5105 
     52 CA        -77.4566   25.4752  -75.6415 C.3       4 UNK         0.0263 
     53 CB        -76.4673   25.2391  -76.8000 C.3       4 UNK        -0.1981 
     54 N         -78.8166   25.0676  -76.0289 N.am      4 UNK        -0.4224 
     55 C         -79.2748   23.8544  -76.3801 C.2       3 UNK         0.4895 
     56 O         -78.6015   22.8269  -76.3027 O.2       3 UNK        -0.5091 
     57 CA        -80.7275   23.7451  -76.8884 C.3       3 UNK         0.0250 
     58 CB        -81.5669   22.8388  -75.9721 C.3       3 UNK        -0.1996 
     59 N         -81.3940   25.0434  -77.0308 N.am      3 UNK        -0.4254 
     60 C         -81.2407   25.8650  -78.0812 C.2       2 UNK         0.5004 
     61 O         -80.5965   25.5712  -79.0883 O.2       2 UNK        -0.5226 
     62 CA        -81.8813   27.2643  -77.9854 C.3       2 UNK         0.0269 
     63 CB        -83.2394   27.2848  -78.7049 C.3       2 UNK        -0.1926 
     64 N         -82.0571   27.7398  -76.6081 N.am      2 UNK        -0.4687 
     65 C         -81.0566   27.9689  -75.7457 C.2       1 UNK         0.5165 
     66 O         -79.8659   27.8616  -76.0431 O.2       1 UNK        -0.5079 
     67 H67       -81.3156   25.3288  -71.5665 H         1 UNK         0.0900 
     68 H68       -80.8426   24.2183  -72.8609 H         1 UNK         0.0900 
     69 H69       -82.5219   24.2883  -72.3179 H         1 UNK         0.0900 
     70 H70       -80.6047   27.2372  -72.6828 H         1 UNK         0.2959 
     71 H71       -82.5147   28.5413  -74.2763 H         1 UNK         0.1079 
     72 H72       -79.6002   29.3520  -73.8236 H         1 UNK         0.0837 
     73 H73       -80.8806   30.3994  -74.3782 H         1 UNK         0.0837 
     74 H74       -79.7003   30.7152  -70.2799 H         1 UNK         0.0685 
     75 H75       -79.1542   31.2719  -71.8403 H         1 UNK         0.0685 
     76 H76       -79.6941   27.9391  -70.1138 H         1 UNK         0.1434 
     77 H77       -75.7859   26.5178  -71.1793 H         1 UNK         0.1329 
     78 H78       -77.0873   30.3594  -72.5169 H         1 UNK         0.1335 
     79 H79       -74.5903   27.6387  -72.9430 H         1 UNK         0.0680 
     80 H80       -75.1498   29.1544  -73.6022 H         1 UNK         0.0680 
     81 H81       -71.4380   29.0322  -71.7758 H         1 UNK         0.1032 
     82 H82       -72.2849   28.1418  -73.0047 H         1 UNK         0.1032 
     83 H83       -71.7832   31.1581  -73.0384 H         1 UNK         0.0461 
     84 H84       -70.9349   29.8161  -76.0852 H         1 UNK         0.3453 
     85 H85       -69.2265   29.6773  -75.7449 H         1 UNK         0.3453 
     86 H86       -73.2865   29.4677  -74.9069 H         1 UNK         0.2984 
     87 H87       -75.0735   31.5893  -76.0520 H         1 UNK         0.0554 
     88 H88       -74.5609   32.2739  -78.4130 H         1 UNK         0.0847 
     89 H89       -72.8361   32.2014  -78.0554 H         1 UNK         0.0847 
     90 H90       -73.8590   33.3760  -77.2429 H         1 UNK         0.0847 
     91 H91       -75.1723   29.5824  -76.9668 H         1 UNK         0.3141 
     92 H92       -74.6704   27.5822  -77.5936 H         1 UNK         0.0743 
     93 H93       -74.4631   28.4327  -79.9369 H         1 UNK         0.0784 
     94 H94       -72.7891   27.9001  -79.9969 H         1 UNK         0.0784 
     95 H95       -74.0922   26.7188  -79.8505 H         1 UNK         0.0784 
     96 H96       -72.1859   26.3204  -78.1749 H         1 UNK         0.3213 
     97 H97       -71.2401   24.9205  -76.7554 H         1 UNK         0.0855 
     98 H98       -70.3186   26.7980  -74.5077 H         1 UNK         0.0814 
     99 H99       -69.8063   26.8912  -76.1852 H         1 UNK         0.0814 
    100 H100      -69.3682   25.4923  -75.2185 H         1 UNK         0.0814 
    101 H101      -71.5155   24.7436  -73.8853 H         1 UNK         0.3105 
    102 H102      -73.1393   21.7408  -74.0475 H         1 UNK         0.0547 
    103 H103      -72.3231   23.9935  -72.1148 H         1 UNK         0.0837 
    104 H104      -72.5504   22.2994  -71.7084 H         1 UNK         0.0837 
    105 H105      -71.2308   22.7652  -72.7618 H         1 UNK         0.0837 
    106 H106      -74.8299   24.0980  -73.5272 H         1 UNK         0.3020 
    107 H107      -77.6219   22.0933  -72.6670 H         1 UNK         0.1245 
    108 H108      -76.1543   24.4167  -71.3377 H         1 UNK         0.0781 
    109 H109      -76.6791   22.9536  -70.5684 H         1 UNK         0.0781 
    110 H110      -77.1594   25.4827  -69.2533 H         1 UNK         0.0836 
    111 H111      -78.8365   25.9212  -69.0940 H         1 UNK         0.0836 
    112 H112      -78.0420   23.2625  -74.4972 H         1 UNK         0.3022 
    113 H113      -77.5135   26.5525  -75.4772 H         1 UNK         0.0747 
    114 H114      -76.7718   25.7739  -77.6995 H         1 UNK         0.0793 
    115 H115      -75.4686   25.5873  -76.5343 H         1 UNK         0.0793 
    116 H116      -76.3759   24.1816  -77.0492 H         1 UNK         0.0793 
    117 H117      -79.4601   25.8478  -76.1057 H         1 UNK         0.3047 
    118 H118      -80.6816   23.2689  -77.8703 H         1 UNK         0.0822 
    119 H119      -81.1391   21.8369  -75.9142 H         1 UNK         0.0807 
    120 H120      -82.5855   22.7322  -76.3454 H         1 UNK         0.0807 
    121 H121      -81.6226   23.2257  -74.9559 H         1 UNK         0.0807 
    122 H122      -81.9498   25.3586  -76.2396 H         1 UNK         0.2946 
    123 H123      -81.2099   27.9594  -78.4949 H         1 UNK         0.1144 
    124 H124      -83.1369   26.9602  -79.7415 H         1 UNK         0.0793 
    125 H125      -83.6647   28.2884  -78.7228 H         1 UNK         0.0793 
    126 H126      -83.9604   26.6214  -78.2254 H         1 UNK         0.0793 
    127 H127      -83.0079   27.7934  -76.2699 H         1 UNK         0.2896 
@<TRIPOS>BOND
     1    1    2 1    
     2    1   67 1    
     3    1   68 1    
     4    1   69 1    
     5    2    3 2    
     6    2    4 am   BACKBONE|DICT|INTERRES
     7    4    5 1    
     8    4   70 1    
     9    5    6 1    
    10    5   65 1    
    11    5   71 1    
    12    6    7 1    
    13    6   72 1    
    14    6   73 1    
    15    7    8 1    
    16    8    9 1    
    17    8   74 1    
    18    8   75 1    
    19    9   10 ar   
    20    9   14 ar   
    21   10   11 ar   
    22   10   76 1    
    23   11   12 ar   
    24   11   48 1    
    25   12   13 ar   
    26   12   77 1    
    27   13   14 ar   
    28   13   15 1    
    29   14   78 1    
    30   15   16 1    
    31   15   79 1    
    32   15   80 1    
    33   16   17 1    
    34   17   18 1    
    35   17   81 1    
    36   17   82 1    
    37   18   19 1    
    38   18   22 1    
    39   18   83 1    
    40   19   20 am   BACKBONE|DICT|INTERRES
    41   19   21 2    
    42   20   84 1    
    43   20   85 1    
    44   22   23 am   BACKBONE|DICT|INTERRES
    45   22   86 1    
    46   23   24 2    
    47   23   25 1    
    48   25   26 1    
    49   25   27 1    
    50   25   87 1    
    51   26   88 1    
    52   26   89 1    
    53   26   90 1    
    54   27   28 am   BACKBONE|DICT|INTERRES
    55   27   91 1    
    56   28   29 2    
    57   28   30 1    
    58   30   31 1    
    59   30   32 1    
    60   30   92 1    
    61   31   93 1    
    62   31   94 1    
    63   31   95 1    
    64   32   33 am   BACKBONE|DICT|INTERRES
    65   32   96 1    
    66   33   34 2    
    67   33   35 1    
    68   35   36 1    
    69   35   37 1    
    70   35   97 1    
    71   36   98 1    
    72   36   99 1    
    73   36  100 1    
    74   37   38 am   BACKBONE|DICT|INTERRES
    75   37  101 1    
    76   38   39 2    
    77   38   40 1    
    78   40   41 1    
    79   40   42 1    
    80   40  102 1    
    81   41  103 1    
    82   41  104 1    
    83   41  105 1    
    84   42   43 am   BACKBONE|DICT|INTERRES
    85   42  106 1    
    86   43   44 2    
    87   43   45 1    
    88   45   46 1    
    89   45   49 1    
    90   45  107 1    
    91   46   47 1    
    92   46  108 1    
    93   46  109 1    
    94   47   48 1    
    95   48  110 1    
    96   48  111 1    
    97   49   50 am   BACKBONE|DICT|INTERRES
    98   49  112 1    
    99   50   51 2    
   100   50   52 1    
   101   52   53 1    
   102   52   54 1    
   103   52  113 1    
   104   53  114 1    
   105   53  115 1    
   106   53  116 1    
   107   54   55 am   BACKBONE|DICT|INTERRES
   108   54  117 1    
   109   55   56 2    
   110   55   57 1    
   111   57   58 1    
   112   57   59 1    
   113   57  118 1    
   114   58  119 1    
   115   58  120 1    
   116   58  121 1    
   117   59   60 am   BACKBONE|DICT|INTERRES
   118   59  122 1    
   119   60   61 2    
   120   60   62 1    
   121   62   63 1    
   122   62   64 1    
   123   62  123 1    
   124   63  124 1    
   125   63  125 1    
   126   63  126 1    
   127   64   65 am   BACKBONE|DICT|INTERRES
   128   64  127 1    
   129   65   66 2    
@<TRIPOS>SUBSTRUCTURE
     1 UNK         1 GROUP             0       ****    0 ROOT    
