@<TRIPOS>MOLECULE
3R135
127   129    1
SMALL
USER_CHARGES


@<TRIPOS>ATOM
      1 CA        -83.9803   31.9404  -70.7119 C.3       0 UNK        -0.1998 
      2 C         -83.0035   30.9917  -71.3911 C.2       0 UNK         0.4909 
      3 O         -82.0207   30.5851  -70.7707 O.2       0 UNK        -0.5240 
      4 N         -83.2685   30.6476  -72.6596 N.am      1 UNK        -0.4739 
      5 CA        -82.4977   29.7100  -73.4883 C.3       1 UNK         0.0864 
      6 C6        -81.0324   30.1828  -73.7205 C.3       11 UNK        -0.0881 
      7 S7        -80.3479   29.6044  -75.3115 S.3       11 UNK        -0.2682 
      8 C8        -78.5582   29.8549  -75.0823 C.3       11 UNK         0.0289 
      9 C9        -77.9949   29.0487  -73.9182 C.ar      11 UNK        -0.0687 
     10 C10       -77.8797   27.6582  -74.0096 C.ar      11 UNK        -0.0823 
     11 C11       -77.4267   26.9090  -72.9187 C.ar      11 UNK        -0.0830 
     12 C12       -77.0535   27.5669  -71.7429 C.ar      11 UNK        -0.1021 
     13 C13       -77.1427   28.9585  -71.6463 C.ar      11 UNK        -0.0753 
     14 C14       -77.6143   29.6937  -72.7374 C.ar      11 UNK        -0.0933 
     15 C15       -76.7847   29.6554  -70.3415 C.3       11 UNK         0.0166 
     16 S16       -74.9978   29.9694  -70.1911 S.3       11 UNK        -0.2615 
     17 C17       -74.7687   31.4346  -71.2638 C.3       11 UNK        -0.0865 
     18 CA        -73.7480   31.2180  -72.4122 C.3       10 UNK         0.0862 
     19 C         -72.2776   31.1813  -71.8934 C.2       10 UNK         0.5551 
     20 N         -71.5124   30.1156  -72.0994 N.am      10 UNK        -0.7319 
     21 O         -71.8169   32.1540  -71.3003 O.2       10 UNK        -0.5018 
     22 N         -74.1407   30.0935  -73.2725 N.am      10 UNK        -0.4509 
     23 C         -73.7028   29.8935  -74.5192 C.2       10 UNK         0.4899 
     24 O         -72.9957   30.6859  -75.1449 O.2       10 UNK        -0.4839 
     25 CA        -74.1249   28.5695  -75.1758 C.3       9 UNK         0.0222 
     26 CB        -75.0454   28.8349  -76.3753 C.3       9 UNK        -0.1966 
     27 N         -72.9768   27.7687  -75.6124 N.am      9 UNK        -0.4218 
     28 C         -71.9620   27.3690  -74.8281 C.2       9 UNK         0.5020 
     29 O         -71.9017   27.6156  -73.6219 O.2       9 UNK        -0.5274 
     30 CA        -70.8340   26.5333  -75.4642 C.3       8 UNK         0.0270 
     31 CB        -70.6165   25.2228  -74.6861 C.3       8 UNK        -0.1976 
     32 N         -71.0705   26.2191  -76.8769 N.am      8 UNK        -0.4313 
     33 C         -70.6930   26.9969  -77.9023 C.2       8 UNK         0.5041 
     34 O         -70.0862   28.0590  -77.7596 O.2       8 UNK        -0.5577 
     35 CA        -71.0461   26.5326  -79.3299 C.3       7 UNK         0.0284 
     36 CB        -69.8127   25.9203  -80.0138 C.3       7 UNK        -0.1958 
     37 N         -72.1545   25.5759  -79.3990 N.am      7 UNK        -0.4454 
     38 C         -73.4254   25.8465  -79.0734 C.2       7 UNK         0.5089 
     39 O         -73.8043   26.9512  -78.6848 O.2       7 UNK        -0.5125 
     40 CA        -74.4407   24.6857  -79.1345 C.3       6 UNK         0.0408 
     41 CB        -73.9181   23.4227  -79.8562 C.3       6 UNK        -0.1791 
     42 N         -74.9388   24.3343  -77.7985 N.am      6 UNK        -0.4762 
     43 C         -74.1956   24.0228  -76.7236 C.2       6 UNK         0.5007 
     44 O         -72.9646   23.9728  -76.7337 O.2       6 UNK        -0.5032 
     45 CA        -74.9490   23.7217  -75.4141 C.3       5 UNK         0.0783 
     46 C46       -75.1469   25.0233  -74.6055 C.3       11 UNK        -0.0857 
     47 S47       -75.7314   24.6997  -72.9152 S.3       11 UNK        -0.2512 
     48 C48       -77.4116   25.3865  -72.9778 C.3       11 UNK         0.0225 
     49 N         -76.2023   22.9878  -75.6494 N.am      5 UNK        -0.4615 
     50 C         -76.2394   21.6985  -76.0123 C.2       4 UNK         0.5053 
     51 O         -75.2231   21.0192  -76.1651 O.2       4 UNK        -0.5105 
     52 CA        -77.6020   21.0326  -76.2854 C.3       4 UNK         0.0263 
     53 CB        -77.8026   19.7821  -75.4024 C.3       4 UNK        -0.1981 
     54 N         -78.7900   21.8998  -76.2476 N.am      4 UNK        -0.4224 
     55 C         -79.3894   22.4518  -75.1829 C.2       3 UNK         0.4895 
     56 O         -78.9194   22.4614  -74.0440 O.2       3 UNK        -0.5091 
     57 CA        -80.7884   23.0323  -75.4518 C.3       3 UNK         0.0250 
     58 CB        -81.8093   21.8941  -75.6329 C.3       3 UNK        -0.1996 
     59 N         -81.2540   23.8939  -74.3638 N.am      3 UNK        -0.4254 
     60 C         -81.0339   25.2104  -74.2954 C.2       2 UNK         0.5004 
     61 O         -80.3780   25.8382  -75.1302 O.2       2 UNK        -0.5226 
     62 CA        -81.6759   25.9485  -73.1118 C.3       2 UNK         0.0269 
     63 CB        -80.9226   25.7049  -71.7922 C.3       2 UNK        -0.1926 
     64 N         -81.7036   27.3791  -73.4002 N.am      2 UNK        -0.4687 
     65 C         -82.6280   28.2492  -72.9834 C.2       1 UNK         0.5165 
     66 O         -83.5793   27.9254  -72.2659 O.2       1 UNK        -0.5079 
     67 H67       -83.4632   32.8440  -70.3899 H         1 UNK         0.0900 
     68 H68       -84.4146   31.4645  -69.8331 H         1 UNK         0.0900 
     69 H69       -84.7937   32.2338  -71.3753 H         1 UNK         0.0900 
     70 H70       -84.1115   31.0002  -73.0918 H         1 UNK         0.2959 
     71 H71       -83.0067   29.7207  -74.4536 H         1 UNK         0.1079 
     72 H72       -80.9879   31.2729  -73.7389 H         1 UNK         0.0837 
     73 H73       -80.3966   29.8752  -72.8893 H         1 UNK         0.0837 
     74 H74       -78.0624   29.5573  -76.0055 H         1 UNK         0.0685 
     75 H75       -78.3577   30.9196  -74.9527 H         1 UNK         0.0685 
     76 H76       -78.1842   27.1599  -74.9195 H         1 UNK         0.1434 
     77 H77       -76.7111   26.9910  -70.8937 H         1 UNK         0.1329 
     78 H78       -77.7119   30.7676  -72.6591 H         1 UNK         0.1335 
     79 H79       -77.3353   30.5918  -70.2382 H         1 UNK         0.0680 
     80 H80       -77.0977   29.0317  -69.5028 H         1 UNK         0.0680 
     81 H81       -74.4692   32.2769  -70.6371 H         1 UNK         0.1032 
     82 H82       -75.7275   31.7298  -71.6898 H         1 UNK         0.1032 
     83 H83       -73.7981   32.1126  -73.0361 H         1 UNK         0.0461 
     84 H84       -71.8607   29.3037  -72.5997 H         1 UNK         0.3453 
     85 H85       -70.5655   30.1193  -71.7567 H         1 UNK         0.3453 
     86 H86       -74.7041   29.3838  -72.8247 H         1 UNK         0.2984 
     87 H87       -74.6823   27.9821  -74.4434 H         1 UNK         0.0554 
     88 H88       -75.5319   27.9206  -76.7154 H         1 UNK         0.0847 
     89 H89       -75.8263   29.5466  -76.1143 H         1 UNK         0.0847 
     90 H90       -74.4973   29.2595  -77.2174 H         1 UNK         0.0847 
     91 H91       -72.9420   27.5375  -76.5969 H         1 UNK         0.3141 
     92 H92       -69.9182   27.1218  -75.3779 H         1 UNK         0.0743 
     93 H93       -70.3081   25.4256  -73.6597 H         1 UNK         0.0784 
     94 H94       -71.5257   24.6237  -74.6356 H         1 UNK         0.0784 
     95 H95       -69.8359   24.6132  -75.1416 H         1 UNK         0.0784 
     96 H96       -71.6008   25.3713  -77.0632 H         1 UNK         0.3213 
     97 H97       -71.3413   27.4217  -79.8915 H         1 UNK         0.0855 
     98 H98       -68.9763   26.6209  -80.0102 H         1 UNK         0.0814 
     99 H99       -70.0174   25.6706  -81.0551 H         1 UNK         0.0814 
    100 H100      -69.4789   25.0132  -79.5081 H         1 UNK         0.0814 
    101 H101      -71.9240   24.6324  -79.6751 H         1 UNK         0.3105 
    102 H102      -75.2958   25.0591  -79.6996 H         1 UNK         0.0547 
    103 H103      -73.5822   23.6545  -80.8680 H         1 UNK         0.0837 
    104 H104      -73.0893   22.9524  -79.3259 H         1 UNK         0.0837 
    105 H105      -74.7069   22.6762  -79.9495 H         1 UNK         0.0837 
    106 H106      -75.9414   24.3714  -77.6819 H         1 UNK         0.3020 
    107 H107      -74.2913   23.0723  -74.8304 H         1 UNK         0.1245 
    108 H108      -74.1968   25.5459  -74.4989 H         1 UNK         0.0781 
    109 H109      -75.8198   25.7109  -75.1206 H         1 UNK         0.0781 
    110 H110      -77.9712   24.9893  -72.1305 H         1 UNK         0.0836 
    111 H111      -77.9215   25.0244  -73.8709 H         1 UNK         0.0836 
    112 H112      -77.0703   23.4743  -75.4837 H         1 UNK         0.3022 
    113 H113      -77.5428   20.6839  -77.3177 H         1 UNK         0.0747 
    114 H114      -78.7345   19.2703  -75.6431 H         1 UNK         0.0793 
    115 H115      -76.9948   19.0639  -75.5489 H         1 UNK         0.0793 
    116 H116      -77.8209   20.0326  -74.3413 H         1 UNK         0.0793 
    117 H117      -79.2604   21.9936  -77.1379 H         1 UNK         0.3047 
    118 H118      -80.7481   23.6105  -76.3780 H         1 UNK         0.0822 
    119 H119      -82.8061   22.2850  -75.8387 H         1 UNK         0.0807 
    120 H120      -81.8737   21.2642  -74.7444 H         1 UNK         0.0807 
    121 H121      -81.5418   21.2475  -76.4697 H         1 UNK         0.0807 
    122 H122      -81.7491   23.4373  -73.6114 H         1 UNK         0.2946 
    123 H123      -82.6995   25.5784  -73.0160 H         1 UNK         0.1144 
    124 H124      -80.7392   24.6434  -71.6213 H         1 UNK         0.0793 
    125 H125      -81.4964   26.0749  -70.9424 H         1 UNK         0.0793 
    126 H126      -79.9607   26.2155  -71.7814 H         1 UNK         0.0793 
    127 H127      -80.9881   27.6912  -74.0492 H         1 UNK         0.2896 
@<TRIPOS>BOND
     1    1    2 1    
     2    1   67 1    
     3    1   68 1    
     4    1   69 1    
     5    2    3 2    
     6    2    4 am   BACKBONE|DICT|INTERRES
     7    4    5 1    
     8    4   70 1    
     9    5    6 1    
    10    5   65 1    
    11    5   71 1    
    12    6    7 1    
    13    6   72 1    
    14    6   73 1    
    15    7    8 1    
    16    8    9 1    
    17    8   74 1    
    18    8   75 1    
    19    9   10 ar   
    20    9   14 ar   
    21   10   11 ar   
    22   10   76 1    
    23   11   12 ar   
    24   11   48 1    
    25   12   13 ar   
    26   12   77 1    
    27   13   14 ar   
    28   13   15 1    
    29   14   78 1    
    30   15   16 1    
    31   15   79 1    
    32   15   80 1    
    33   16   17 1    
    34   17   18 1    
    35   17   81 1    
    36   17   82 1    
    37   18   19 1    
    38   18   22 1    
    39   18   83 1    
    40   19   20 am   BACKBONE|DICT|INTERRES
    41   19   21 2    
    42   20   84 1    
    43   20   85 1    
    44   22   23 am   BACKBONE|DICT|INTERRES
    45   22   86 1    
    46   23   24 2    
    47   23   25 1    
    48   25   26 1    
    49   25   27 1    
    50   25   87 1    
    51   26   88 1    
    52   26   89 1    
    53   26   90 1    
    54   27   28 am   BACKBONE|DICT|INTERRES
    55   27   91 1    
    56   28   29 2    
    57   28   30 1    
    58   30   31 1    
    59   30   32 1    
    60   30   92 1    
    61   31   93 1    
    62   31   94 1    
    63   31   95 1    
    64   32   33 am   BACKBONE|DICT|INTERRES
    65   32   96 1    
    66   33   34 2    
    67   33   35 1    
    68   35   36 1    
    69   35   37 1    
    70   35   97 1    
    71   36   98 1    
    72   36   99 1    
    73   36  100 1    
    74   37   38 am   BACKBONE|DICT|INTERRES
    75   37  101 1    
    76   38   39 2    
    77   38   40 1    
    78   40   41 1    
    79   40   42 1    
    80   40  102 1    
    81   41  103 1    
    82   41  104 1    
    83   41  105 1    
    84   42   43 am   BACKBONE|DICT|INTERRES
    85   42  106 1    
    86   43   44 2    
    87   43   45 1    
    88   45   46 1    
    89   45   49 1    
    90   45  107 1    
    91   46   47 1    
    92   46  108 1    
    93   46  109 1    
    94   47   48 1    
    95   48  110 1    
    96   48  111 1    
    97   49   50 am   BACKBONE|DICT|INTERRES
    98   49  112 1    
    99   50   51 2    
   100   50   52 1    
   101   52   53 1    
   102   52   54 1    
   103   52  113 1    
   104   53  114 1    
   105   53  115 1    
   106   53  116 1    
   107   54   55 am   BACKBONE|DICT|INTERRES
   108   54  117 1    
   109   55   56 2    
   110   55   57 1    
   111   57   58 1    
   112   57   59 1    
   113   57  118 1    
   114   58  119 1    
   115   58  120 1    
   116   58  121 1    
   117   59   60 am   BACKBONE|DICT|INTERRES
   118   59  122 1    
   119   60   61 2    
   120   60   62 1    
   121   62   63 1    
   122   62   64 1    
   123   62  123 1    
   124   63  124 1    
   125   63  125 1    
   126   63  126 1    
   127   64   65 am   BACKBONE|DICT|INTERRES
   128   64  127 1    
   129   65   66 2    
@<TRIPOS>SUBSTRUCTURE
     1 UNK         1 GROUP             0       ****    0 ROOT    
