@<TRIPOS>MOLECULE
3R135
127   129    1
SMALL
USER_CHARGES


@<TRIPOS>ATOM
      1 CA        -86.6505   28.1249  -70.7925 C.3       0 UNK        -0.1998 
      2 C         -85.3795   28.6196  -71.4664 C.2       0 UNK         0.4909 
      3 O         -85.2891   29.7986  -71.8098 O.2       0 UNK        -0.5240 
      4 N         -84.3960   27.7284  -71.6520 N.am      1 UNK        -0.4739 
      5 CA        -83.1178   28.0117  -72.3169 C.3       1 UNK         0.0864 
      6 C6        -82.1025   26.8701  -72.0619 C.3       11 UNK        -0.0881 
      7 S7        -80.3863   27.3047  -72.5047 S.3       11 UNK        -0.2682 
      8 C8        -79.5225   27.1429  -70.9133 C.3       11 UNK         0.0289 
      9 C9        -78.0391   26.8773  -71.1216 C.ar      11 UNK        -0.0687 
     10 C10       -77.5205   25.5963  -70.9152 C.ar      11 UNK        -0.0823 
     11 C11       -76.1535   25.3508  -71.0648 C.ar      11 UNK        -0.0830 
     12 C12       -75.3068   26.3941  -71.4529 C.ar      11 UNK        -0.1021 
     13 C13       -75.8103   27.6812  -71.6756 C.ar      11 UNK        -0.0753 
     14 C14       -77.1805   27.9148  -71.4956 C.ar      11 UNK        -0.0933 
     15 C15       -74.8361   28.7999  -72.0462 C.3       11 UNK         0.0166 
     16 S16       -75.5628   30.1683  -73.0117 S.3       11 UNK        -0.2615 
     17 C17       -74.0896   31.2041  -73.3063 C.3       11 UNK        -0.0865 
     18 CA        -73.6711   31.2657  -74.7994 C.3       10 UNK         0.0862 
     19 C         -72.4765   32.2501  -74.9806 C.2       10 UNK         0.5551 
     20 N         -71.2704   31.7896  -75.2945 N.am      10 UNK        -0.7319 
     21 O         -72.6523   33.4567  -74.8312 O.2       10 UNK        -0.5018 
     22 N         -73.4448   29.9262  -75.3654 N.am      10 UNK        -0.4509 
     23 C         -73.3226   29.6536  -76.6713 C.2       10 UNK         0.4899 
     24 O         -73.5326   30.4799  -77.5606 O.2       10 UNK        -0.4839 
     25 CA        -72.8854   28.2214  -77.0489 C.3       9 UNK         0.0222 
     26 CB        -72.0600   28.1856  -78.3516 C.3       9 UNK        -0.1966 
     27 N         -72.1771   27.4973  -75.9837 N.am      9 UNK        -0.4218 
     28 C         -71.0549   27.8601  -75.3404 C.2       9 UNK         0.5020 
     29 O         -70.4572   28.9187  -75.5389 O.2       9 UNK        -0.5274 
     30 CA        -70.5296   26.8888  -74.2747 C.3       8 UNK         0.0270 
     31 CB        -71.3816   26.9778  -72.9971 C.3       8 UNK        -0.1976 
     32 N         -70.5443   25.5115  -74.7683 N.am      8 UNK        -0.4313 
     33 C         -69.4626   24.8173  -75.1464 C.2       8 UNK         0.5041 
     34 O         -68.3104   25.2480  -75.0779 O.2       8 UNK        -0.5577 
     35 CA        -69.6938   23.3924  -75.6874 C.3       7 UNK         0.0284 
     36 CB        -69.4837   22.3558  -74.5715 C.3       7 UNK        -0.1958 
     37 N         -71.0216   23.2008  -76.2767 N.am      7 UNK        -0.4454 
     38 C         -71.4389   23.7687  -77.4163 C.2       7 UNK         0.5089 
     39 O         -70.7175   24.4488  -78.1457 O.2       7 UNK        -0.5125 
     40 CA        -72.9173   23.5674  -77.7997 C.3       6 UNK         0.0408 
     41 CB        -73.0474   22.4534  -78.8505 C.3       6 UNK        -0.1791 
     42 N         -73.8296   23.2848  -76.6811 N.am      6 UNK        -0.4762 
     43 C         -74.0378   24.0866  -75.6267 C.2       6 UNK         0.5007 
     44 O         -73.3705   25.0967  -75.3920 O.2       6 UNK        -0.5032 
     45 CA        -75.1687   23.7054  -74.6545 C.3       5 UNK         0.0783 
     46 C46       -74.5737   23.2861  -73.2898 C.3       11 UNK        -0.0857 
     47 S47       -75.8557   22.7804  -72.0966 S.3       11 UNK        -0.2512 
     48 C48       -75.5930   23.9713  -70.7449 C.3       11 UNK         0.0225 
     49 N         -76.1046   24.8266  -74.5345 N.am      5 UNK        -0.4615 
     50 C         -76.8855   25.2696  -75.5266 C.2       4 UNK         0.5053 
     51 O         -76.9684   24.7255  -76.6310 O.2       4 UNK        -0.5105 
     52 CA        -77.6506   26.5724  -75.2513 C.3       4 UNK         0.0263 
     53 CB        -76.7132   27.7767  -75.4400 C.3       4 UNK        -0.1981 
     54 N         -78.8048   26.7346  -76.1377 N.am      4 UNK        -0.4224 
     55 C         -79.9391   26.0290  -76.0573 C.2       3 UNK         0.4895 
     56 O         -80.1697   25.1706  -75.2022 O.2       3 UNK        -0.5091 
     57 CA        -81.0062   26.3343  -77.1119 C.3       3 UNK         0.0250 
     58 CB        -81.1430   25.1819  -78.1234 C.3       3 UNK        -0.1996 
     59 N         -82.2708   26.5574  -76.4199 N.am      3 UNK        -0.4254 
     60 C         -83.2654   27.3378  -76.8580 C.2       2 UNK         0.5004 
     61 O         -83.2661   27.8933  -77.9574 O.2       2 UNK        -0.5226 
     62 CA        -84.4612   27.5512  -75.9104 C.3       2 UNK         0.0269 
     63 CB        -85.5896   26.5590  -76.2358 C.3       2 UNK        -0.1926 
     64 N         -84.1254   27.4485  -74.4852 N.am      2 UNK        -0.4687 
     65 C         -83.3125   28.2885  -73.8243 C.2       1 UNK         0.5165 
     66 O         -82.7566   29.2551  -74.3480 O.2       1 UNK        -0.5079 
     67 H67       -86.5909   27.0679  -70.5336 H         1 UNK         0.0900 
     68 H68       -87.5044   28.2639  -71.4549 H         1 UNK         0.0900 
     69 H69       -86.8335   28.6878  -69.8776 H         1 UNK         0.0900 
     70 H70       -84.5296   26.7776  -71.3374 H         1 UNK         0.2959 
     71 H71       -82.7178   28.9254  -71.8705 H         1 UNK         0.1079 
     72 H72       -82.1320   26.5913  -71.0077 H         1 UNK         0.0837 
     73 H73       -82.3805   25.9677  -72.6099 H         1 UNK         0.0837 
     74 H74       -79.9632   26.3324  -70.3311 H         1 UNK         0.0685 
     75 H75       -79.6623   28.0548  -70.3309 H         1 UNK         0.0685 
     76 H76       -78.1775   24.7910  -70.6150 H         1 UNK         0.1434 
     77 H77       -74.2460   26.2101  -71.5537 H         1 UNK         0.1329 
     78 H78       -77.5898   28.9048  -71.6387 H         1 UNK         0.1335 
     79 H79       -74.0100   28.3846  -72.6231 H         1 UNK         0.0680 
     80 H80       -74.4081   29.2031  -71.1274 H         1 UNK         0.0680 
     81 H81       -74.3222   32.2063  -72.9404 H         1 UNK         0.1032 
     82 H82       -73.2589   30.8513  -72.6920 H         1 UNK         0.1032 
     83 H83       -74.5061   31.7018  -75.3514 H         1 UNK         0.0461 
     84 H84       -71.1031   30.7954  -75.4141 H         1 UNK         0.3453 
     85 H85       -70.5104   32.4406  -75.4096 H         1 UNK         0.3453 
     86 H86       -73.2615   29.1884  -74.7049 H         1 UNK         0.2984 
     87 H87       -73.8059   27.6634  -77.2260 H         1 UNK         0.0554 
     88 H88       -71.7802   27.1654  -78.6151 H         1 UNK         0.0847 
     89 H89       -71.1445   28.7716  -78.2635 H         1 UNK         0.0847 
     90 H90       -72.6272   28.5906  -79.1904 H         1 UNK         0.0847 
     91 H91       -72.6118   26.6127  -75.7189 H         1 UNK         0.3141 
     92 H92       -69.5115   27.1931  -74.0221 H         1 UNK         0.0743 
     93 H93       -71.4222   28.0016  -72.6223 H         1 UNK         0.0784 
     94 H94       -72.4055   26.6452  -73.1693 H         1 UNK         0.0784 
     95 H95       -70.9624   26.3600  -72.2028 H         1 UNK         0.0784 
     96 H96       -71.4579   25.0937  -74.9098 H         1 UNK         0.3213 
     97 H97       -68.9489   23.2137  -76.4662 H         1 UNK         0.0855 
     98 H98       -70.2096   22.4747  -73.7661 H         1 UNK         0.0814 
     99 H99       -68.4904   22.4541  -74.1309 H         1 UNK         0.0814 
    100 H100      -69.5665   21.3380  -74.9532 H         1 UNK         0.0814 
    101 H101      -71.6812   22.6406  -75.7569 H         1 UNK         0.3105 
    102 H102      -73.2532   24.5015  -78.2553 H         1 UNK         0.0547 
    103 H103      -72.7639   21.4811  -78.4458 H         1 UNK         0.0837 
    104 H104      -74.0677   22.3779  -79.2269 H         1 UNK         0.0837 
    105 H105      -72.4034   22.6484  -79.7095 H         1 UNK         0.0837 
    106 H106      -74.4182   22.4707  -76.7900 H         1 UNK         0.3020 
    107 H107      -75.7191   22.8566  -75.0666 H         1 UNK         0.1245 
    108 H108      -73.9711   24.0916  -72.8661 H         1 UNK         0.0781 
    109 H109      -73.8954   22.4400  -73.4160 H         1 UNK         0.0781 
    110 H110      -74.5303   24.0283  -70.5037 H         1 UNK         0.0836 
    111 H111      -76.0796   23.5875  -69.8469 H         1 UNK         0.0836 
    112 H112      -76.0881   25.3253  -73.6559 H         1 UNK         0.3022 
    113 H113      -78.0034   26.5551  -74.2180 H         1 UNK         0.0747 
    114 H114      -75.8358   27.6964  -74.7972 H         1 UNK         0.0793 
    115 H115      -77.2137   28.7109  -75.1850 H         1 UNK         0.0793 
    116 H116      -76.3548   27.8553  -76.4670 H         1 UNK         0.0793 
    117 H117      -78.6940   27.3910  -76.8963 H         1 UNK         0.3047 
    118 H118      -80.7251   27.2448  -77.6462 H         1 UNK         0.0822 
    119 H119      -80.1943   24.9913  -78.6270 H         1 UNK         0.0807 
    120 H120      -81.8791   25.4139  -78.8934 H         1 UNK         0.0807 
    121 H121      -81.4475   24.2543  -77.6371 H         1 UNK         0.0807 
    122 H122      -82.3299   26.1530  -75.4944 H         1 UNK         0.2946 
    123 H123      -84.8327   28.5628  -76.0901 H         1 UNK         0.1144 
    124 H124      -85.8816   26.6306  -77.2846 H         1 UNK         0.0793 
    125 H125      -86.4801   26.7601  -75.6399 H         1 UNK         0.0793 
    126 H126      -85.2863   25.5275  -76.0521 H         1 UNK         0.0793 
    127 H127      -84.5606   26.6981  -73.9683 H         1 UNK         0.2896 
@<TRIPOS>BOND
     1    1    2 1    
     2    1   67 1    
     3    1   68 1    
     4    1   69 1    
     5    2    3 2    
     6    2    4 am   BACKBONE|DICT|INTERRES
     7    4    5 1    
     8    4   70 1    
     9    5    6 1    
    10    5   65 1    
    11    5   71 1    
    12    6    7 1    
    13    6   72 1    
    14    6   73 1    
    15    7    8 1    
    16    8    9 1    
    17    8   74 1    
    18    8   75 1    
    19    9   10 ar   
    20    9   14 ar   
    21   10   11 ar   
    22   10   76 1    
    23   11   12 ar   
    24   11   48 1    
    25   12   13 ar   
    26   12   77 1    
    27   13   14 ar   
    28   13   15 1    
    29   14   78 1    
    30   15   16 1    
    31   15   79 1    
    32   15   80 1    
    33   16   17 1    
    34   17   18 1    
    35   17   81 1    
    36   17   82 1    
    37   18   19 1    
    38   18   22 1    
    39   18   83 1    
    40   19   20 am   BACKBONE|DICT|INTERRES
    41   19   21 2    
    42   20   84 1    
    43   20   85 1    
    44   22   23 am   BACKBONE|DICT|INTERRES
    45   22   86 1    
    46   23   24 2    
    47   23   25 1    
    48   25   26 1    
    49   25   27 1    
    50   25   87 1    
    51   26   88 1    
    52   26   89 1    
    53   26   90 1    
    54   27   28 am   BACKBONE|DICT|INTERRES
    55   27   91 1    
    56   28   29 2    
    57   28   30 1    
    58   30   31 1    
    59   30   32 1    
    60   30   92 1    
    61   31   93 1    
    62   31   94 1    
    63   31   95 1    
    64   32   33 am   BACKBONE|DICT|INTERRES
    65   32   96 1    
    66   33   34 2    
    67   33   35 1    
    68   35   36 1    
    69   35   37 1    
    70   35   97 1    
    71   36   98 1    
    72   36   99 1    
    73   36  100 1    
    74   37   38 am   BACKBONE|DICT|INTERRES
    75   37  101 1    
    76   38   39 2    
    77   38   40 1    
    78   40   41 1    
    79   40   42 1    
    80   40  102 1    
    81   41  103 1    
    82   41  104 1    
    83   41  105 1    
    84   42   43 am   BACKBONE|DICT|INTERRES
    85   42  106 1    
    86   43   44 2    
    87   43   45 1    
    88   45   46 1    
    89   45   49 1    
    90   45  107 1    
    91   46   47 1    
    92   46  108 1    
    93   46  109 1    
    94   47   48 1    
    95   48  110 1    
    96   48  111 1    
    97   49   50 am   BACKBONE|DICT|INTERRES
    98   49  112 1    
    99   50   51 2    
   100   50   52 1    
   101   52   53 1    
   102   52   54 1    
   103   52  113 1    
   104   53  114 1    
   105   53  115 1    
   106   53  116 1    
   107   54   55 am   BACKBONE|DICT|INTERRES
   108   54  117 1    
   109   55   56 2    
   110   55   57 1    
   111   57   58 1    
   112   57   59 1    
   113   57  118 1    
   114   58  119 1    
   115   58  120 1    
   116   58  121 1    
   117   59   60 am   BACKBONE|DICT|INTERRES
   118   59  122 1    
   119   60   61 2    
   120   60   62 1    
   121   62   63 1    
   122   62   64 1    
   123   62  123 1    
   124   63  124 1    
   125   63  125 1    
   126   63  126 1    
   127   64   65 am   BACKBONE|DICT|INTERRES
   128   64  127 1    
   129   65   66 2    
@<TRIPOS>SUBSTRUCTURE
     1 UNK         1 GROUP             0       ****    0 ROOT    
