@<TRIPOS>MOLECULE
3R135
127   129    1
SMALL
USER_CHARGES


@<TRIPOS>ATOM
      1 CA        -80.3579   25.7277  -70.3911 C.3       0 UNK        -0.1998 
      2 C         -81.6117   25.9417  -71.2258 C.2       0 UNK         0.4909 
      3 O         -82.5904   25.2136  -71.0596 O.2       0 UNK        -0.5240 
      4 N         -81.5876   26.9316  -72.1280 N.am      1 UNK        -0.4739 
      5 CA        -82.6657   27.2234  -73.0827 C.3       1 UNK         0.0864 
      6 C6        -82.6011   28.6826  -73.6072 C.3       11 UNK        -0.0881 
      7 S7        -80.9587   29.1662  -74.2522 S.3       11 UNK        -0.2682 
      8 C8        -80.3638   30.3065  -72.9642 C.3       11 UNK         0.0289 
      9 C9        -78.8822   30.1006  -72.6923 C.ar      11 UNK        -0.0687 
     10 C10       -78.4749   29.1767  -71.7253 C.ar      11 UNK        -0.0823 
     11 C11       -77.1189   28.9876  -71.4471 C.ar      11 UNK        -0.0830 
     12 C12       -76.1680   29.7491  -72.1317 C.ar      11 UNK        -0.1021 
     13 C13       -76.5609   30.6771  -73.1010 C.ar      11 UNK        -0.0753 
     14 C14       -77.9203   30.8439  -73.3844 C.ar      11 UNK        -0.0933 
     15 C15       -75.5069   31.4977  -73.8271 C.3       11 UNK         0.0166 
     16 S16       -74.6489   30.4753  -75.0584 S.3       11 UNK        -0.2615 
     17 C17       -72.9768   31.2042  -75.1055 C.3       11 UNK        -0.0865 
     18 CA        -71.9710   30.5521  -74.1145 C.3       10 UNK         0.0862 
     19 C         -72.0884   31.1539  -72.6812 C.2       10 UNK         0.5551 
     20 N         -72.3882   30.3743  -71.6491 N.am      10 UNK        -0.7319 
     21 O         -71.8947   32.3541  -72.5046 O.2       10 UNK        -0.5018 
     22 N         -71.9971   29.0792  -74.1807 N.am      10 UNK        -0.4509 
     23 C         -71.0159   28.2815  -73.7368 C.2       10 UNK         0.4899 
     24 O         -69.9328   28.6925  -73.3203 O.2       10 UNK        -0.4839 
     25 CA        -71.2889   26.7727  -73.7389 C.3       9 UNK         0.0222 
     26 CB        -72.1397   26.3838  -72.5198 C.3       9 UNK        -0.1966 
     27 N         -71.9663   26.3503  -74.9658 N.am      9 UNK        -0.4218 
     28 C         -71.3473   25.7602  -75.9974 C.2       9 UNK         0.5020 
     29 O         -70.1416   25.5069  -76.0260 O.2       9 UNK        -0.5274 
     30 CA        -72.2163   25.3697  -77.2031 C.3       8 UNK         0.0270 
     31 CB        -73.0057   24.0848  -76.9053 C.3       8 UNK        -0.1976 
     32 N         -73.1420   26.4206  -77.6222 N.am      8 UNK        -0.4313 
     33 C         -72.8042   27.6221  -78.1058 C.2       8 UNK         0.5041 
     34 O         -71.6400   27.9912  -78.2633 O.2       8 UNK        -0.5577 
     35 CA        -73.9465   28.5865  -78.4820 C.3       7 UNK         0.0284 
     36 CB        -74.3514   28.4192  -79.9596 C.3       7 UNK        -0.1958 
     37 N         -75.1137   28.5293  -77.5898 N.am      7 UNK        -0.4454 
     38 C         -75.9863   27.5325  -77.4013 C.2       7 UNK         0.5089 
     39 O         -75.9706   26.4689  -78.0229 O.2       7 UNK        -0.5125 
     40 CA        -77.0140   27.7381  -76.2798 C.3       6 UNK         0.0408 
     41 CB        -78.4389   27.7627  -76.8528 C.3       6 UNK        -0.1791 
     42 N         -76.9121   26.6983  -75.2538 N.am      6 UNK        -0.4762 
     43 C         -75.8231   26.4351  -74.5117 C.2       6 UNK         0.5007 
     44 O         -74.7387   27.0069  -74.6499 O.2       6 UNK        -0.5032 
     45 CA        -75.9495   25.3167  -73.4625 C.3       5 UNK         0.0783 
     46 C46       -76.7095   25.7814  -72.1928 C.3       11 UNK        -0.0857 
     47 S47       -75.6139   26.6681  -71.0342 S.3       11 UNK        -0.2512 
     48 C48       -76.6874   27.9880  -70.3817 C.3       11 UNK         0.0225 
     49 N         -76.5675   24.1333  -74.0627 N.am      5 UNK        -0.4615 
     50 C         -76.0007   22.9199  -74.1214 C.2       4 UNK         0.5053 
     51 O         -74.9058   22.6495  -73.6278 O.2       4 UNK        -0.5105 
     52 CA        -76.7778   21.8076  -74.8540 C.3       4 UNK         0.0263 
     53 CB        -77.5535   20.9437  -73.8465 C.3       4 UNK        -0.1981 
     54 N         -77.7096   22.3244  -75.8576 N.am      4 UNK        -0.4224 
     55 C         -77.3475   22.9510  -76.9853 C.2       3 UNK         0.4895 
     56 O         -76.1856   23.0012  -77.3863 O.2       3 UNK        -0.5091 
     57 CA        -78.4516   23.6565  -77.7985 C.3       3 UNK         0.0250 
     58 CB        -78.6643   22.9442  -79.1448 C.3       3 UNK        -0.1996 
     59 N         -79.7540   23.8005  -77.1291 N.am      3 UNK        -0.4254 
     60 C         -79.9984   24.4407  -75.9770 C.2       2 UNK         0.5004 
     61 O         -79.1233   24.9368  -75.2590 O.2       2 UNK        -0.5226 
     62 CA        -81.4624   24.4827  -75.5294 C.3       2 UNK         0.0269 
     63 CB        -81.9034   23.1208  -74.9616 C.3       2 UNK        -0.1926 
     64 N         -81.6112   25.5082  -74.5036 N.am      2 UNK        -0.4687 
     65 C         -82.7271   26.1976  -74.2372 C.2       1 UNK         0.5165 
     66 O         -83.7842   26.0417  -74.8511 O.2       1 UNK        -0.5079 
     67 H67       -79.4947   26.2346  -70.8183 H         1 UNK         0.0900 
     68 H68       -80.1231   24.6652  -70.3312 H         1 UNK         0.0900 
     69 H69       -80.5114   26.1005  -69.3788 H         1 UNK         0.0900 
     70 H70       -80.7607   27.4990  -72.2406 H         1 UNK         0.2959 
     71 H71       -83.6136   27.1189  -72.5493 H         1 UNK         0.1079 
     72 H72       -83.3397   28.8416  -74.3956 H         1 UNK         0.0837 
     73 H73       -82.8954   29.3653  -72.8093 H         1 UNK         0.0837 
     74 H74       -80.5553   31.3332  -73.2796 H         1 UNK         0.0685 
     75 H75       -80.9203   30.1645  -72.0368 H         1 UNK         0.0685 
     76 H76       -79.2176   28.6155  -71.1777 H         1 UNK         0.1434 
     77 H77       -75.1174   29.6133  -71.9160 H         1 UNK         0.1329 
     78 H78       -78.2313   31.5580  -74.1346 H         1 UNK         0.1335 
     79 H79       -75.9536   32.3598  -74.3247 H         1 UNK         0.0680 
     80 H80       -74.8015   31.8948  -73.0976 H         1 UNK         0.0680 
     81 H81       -73.0379   32.2858  -74.9680 H         1 UNK         0.1032 
     82 H82       -72.6014   31.0689  -76.1208 H         1 UNK         0.1032 
     83 H83       -70.9780   30.8543  -74.4532 H         1 UNK         0.0461 
     84 H84       -72.4509   30.7779  -70.7281 H         1 UNK         0.3453 
     85 H85       -72.5336   29.3877  -71.7817 H         1 UNK         0.3453 
     86 H86       -72.8742   28.6720  -74.4771 H         1 UNK         0.2984 
     87 H87       -70.3295   26.2601  -73.6427 H         1 UNK         0.0554 
     88 H88       -73.0968   26.9040  -72.5137 H         1 UNK         0.0847 
     89 H89       -71.6276   26.6352  -71.5901 H         1 UNK         0.0847 
     90 H90       -72.3401   25.3125  -72.4995 H         1 UNK         0.0847 
     91 H91       -72.9649   26.5387  -75.0259 H         1 UNK         0.3141 
     92 H92       -71.5461   25.1701  -78.0418 H         1 UNK         0.0743 
     93 H93       -73.7447   24.2350  -76.1167 H         1 UNK         0.0784 
     94 H94       -73.5337   23.7315  -77.7913 H         1 UNK         0.0784 
     95 H95       -72.3424   23.2811  -76.5827 H         1 UNK         0.0784 
     96 H96       -74.1355   26.2061  -77.5865 H         1 UNK         0.3213 
     97 H97       -73.5452   29.5948  -78.3662 H         1 UNK         0.0855 
     98 H98       -73.4943   28.5767  -80.6157 H         1 UNK         0.0814 
     99 H99       -75.1156   29.1417  -80.2458 H         1 UNK         0.0814 
    100 H100      -74.7371   27.4211  -80.1688 H         1 UNK         0.0814 
    101 H101      -75.1838   29.3126  -76.9501 H         1 UNK         0.3105 
    102 H102      -76.8363   28.6945  -75.7863 H         1 UNK         0.0547 
    103 H103      -78.5762   28.6168  -77.5167 H         1 UNK         0.0837 
    104 H104      -78.6625   26.8649  -77.4279 H         1 UNK         0.0837 
    105 H105      -79.1827   27.8412  -76.0625 H         1 UNK         0.0837 
    106 H106      -77.7451   26.1295  -75.1268 H         1 UNK         0.3020 
    107 H107      -74.9271   25.0661  -73.1703 H         1 UNK         0.1245 
    108 H108      -77.0985   24.9170  -71.6522 H         1 UNK         0.0781 
    109 H109      -77.5801   26.3878  -72.4481 H         1 UNK         0.0781 
    110 H110      -76.1449   28.5228  -69.6009 H         1 UNK         0.0836 
    111 H111      -77.5502   27.5333  -69.8933 H         1 UNK         0.0836 
    112 H112      -77.4672   24.2753  -74.5120 H         1 UNK         0.3022 
    113 H113      -76.0473   21.1746  -75.3624 H         1 UNK         0.0747 
    114 H114      -78.0531   20.1097  -74.3399 H         1 UNK         0.0793 
    115 H115      -76.8818   20.5200  -73.0985 H         1 UNK         0.0793 
    116 H116      -78.3095   21.5230  -73.3146 H         1 UNK         0.0793 
    117 H117      -78.6888   22.3204  -75.6144 H         1 UNK         0.3047 
    118 H118      -78.0802   24.6616  -78.0045 H         1 UNK         0.0822 
    119 H119      -79.3551   23.4960  -79.7826 H         1 UNK         0.0807 
    120 H120      -79.0598   21.9367  -79.0098 H         1 UNK         0.0807 
    121 H121      -77.7256   22.8549  -79.6938 H         1 UNK         0.0807 
    122 H122      -80.5400   23.4019  -77.6231 H         1 UNK         0.2946 
    123 H123      -82.0774   24.7428  -76.3943 H         1 UNK         0.1144 
    124 H124      -81.8096   22.3292  -75.7060 H         1 UNK         0.0793 
    125 H125      -82.9473   23.1423  -74.6480 H         1 UNK         0.0793 
    126 H126      -81.3035   22.8324  -74.0972 H         1 UNK         0.0793 
    127 H127      -80.7597   25.7314  -74.0052 H         1 UNK         0.2896 
@<TRIPOS>BOND
     1    1    2 1    
     2    1   67 1    
     3    1   68 1    
     4    1   69 1    
     5    2    3 2    
     6    2    4 am   BACKBONE|DICT|INTERRES
     7    4    5 1    
     8    4   70 1    
     9    5    6 1    
    10    5   65 1    
    11    5   71 1    
    12    6    7 1    
    13    6   72 1    
    14    6   73 1    
    15    7    8 1    
    16    8    9 1    
    17    8   74 1    
    18    8   75 1    
    19    9   10 ar   
    20    9   14 ar   
    21   10   11 ar   
    22   10   76 1    
    23   11   12 ar   
    24   11   48 1    
    25   12   13 ar   
    26   12   77 1    
    27   13   14 ar   
    28   13   15 1    
    29   14   78 1    
    30   15   16 1    
    31   15   79 1    
    32   15   80 1    
    33   16   17 1    
    34   17   18 1    
    35   17   81 1    
    36   17   82 1    
    37   18   19 1    
    38   18   22 1    
    39   18   83 1    
    40   19   20 am   BACKBONE|DICT|INTERRES
    41   19   21 2    
    42   20   84 1    
    43   20   85 1    
    44   22   23 am   BACKBONE|DICT|INTERRES
    45   22   86 1    
    46   23   24 2    
    47   23   25 1    
    48   25   26 1    
    49   25   27 1    
    50   25   87 1    
    51   26   88 1    
    52   26   89 1    
    53   26   90 1    
    54   27   28 am   BACKBONE|DICT|INTERRES
    55   27   91 1    
    56   28   29 2    
    57   28   30 1    
    58   30   31 1    
    59   30   32 1    
    60   30   92 1    
    61   31   93 1    
    62   31   94 1    
    63   31   95 1    
    64   32   33 am   BACKBONE|DICT|INTERRES
    65   32   96 1    
    66   33   34 2    
    67   33   35 1    
    68   35   36 1    
    69   35   37 1    
    70   35   97 1    
    71   36   98 1    
    72   36   99 1    
    73   36  100 1    
    74   37   38 am   BACKBONE|DICT|INTERRES
    75   37  101 1    
    76   38   39 2    
    77   38   40 1    
    78   40   41 1    
    79   40   42 1    
    80   40  102 1    
    81   41  103 1    
    82   41  104 1    
    83   41  105 1    
    84   42   43 am   BACKBONE|DICT|INTERRES
    85   42  106 1    
    86   43   44 2    
    87   43   45 1    
    88   45   46 1    
    89   45   49 1    
    90   45  107 1    
    91   46   47 1    
    92   46  108 1    
    93   46  109 1    
    94   47   48 1    
    95   48  110 1    
    96   48  111 1    
    97   49   50 am   BACKBONE|DICT|INTERRES
    98   49  112 1    
    99   50   51 2    
   100   50   52 1    
   101   52   53 1    
   102   52   54 1    
   103   52  113 1    
   104   53  114 1    
   105   53  115 1    
   106   53  116 1    
   107   54   55 am   BACKBONE|DICT|INTERRES
   108   54  117 1    
   109   55   56 2    
   110   55   57 1    
   111   57   58 1    
   112   57   59 1    
   113   57  118 1    
   114   58  119 1    
   115   58  120 1    
   116   58  121 1    
   117   59   60 am   BACKBONE|DICT|INTERRES
   118   59  122 1    
   119   60   61 2    
   120   60   62 1    
   121   62   63 1    
   122   62   64 1    
   123   62  123 1    
   124   63  124 1    
   125   63  125 1    
   126   63  126 1    
   127   64   65 am   BACKBONE|DICT|INTERRES
   128   64  127 1    
   129   65   66 2    
@<TRIPOS>SUBSTRUCTURE
     1 UNK         1 GROUP             0       ****    0 ROOT    
