@<TRIPOS>MOLECULE
3R135
127   129    1
SMALL
USER_CHARGES


@<TRIPOS>ATOM
      1 CA        -84.7355   25.7078  -71.5247 C.3       0 UNK        -0.1998 
      2 C         -83.6751   24.6135  -71.4335 C.2       0 UNK         0.4909 
      3 O         -84.0250   23.4352  -71.4110 O.2       0 UNK        -0.5240 
      4 N         -82.3756   24.9397  -71.3734 N.am      1 UNK        -0.4739 
      5 CA        -81.7877   26.2866  -71.4334 C.3       1 UNK         0.0864 
      6 C6        -80.3596   26.2940  -70.8290 C.3       11 UNK        -0.0881 
      7 S7        -79.1607   25.2585  -71.7459 S.3       11 UNK        -0.2682 
      8 C8        -77.5639   25.8567  -71.0887 C.3       11 UNK         0.0289 
      9 C9        -77.1812   27.2994  -71.4313 C.ar      11 UNK        -0.0687 
     10 C10       -77.8809   28.0758  -72.3654 C.ar      11 UNK        -0.0823 
     11 C11       -77.4810   29.3840  -72.6488 C.ar      11 UNK        -0.0830 
     12 C12       -76.3910   29.9337  -71.9734 C.ar      11 UNK        -0.1021 
     13 C13       -75.6580   29.1641  -71.0696 C.ar      11 UNK        -0.0753 
     14 C14       -76.0617   27.8527  -70.7995 C.ar      11 UNK        -0.0933 
     15 C15       -74.4207   29.7430  -70.4006 C.3       11 UNK         0.0166 
     16 S16       -72.9573   29.6195  -71.4809 S.3       11 UNK        -0.2615 
     17 C17       -73.0936   31.1183  -72.5217 C.3       11 UNK        -0.0865 
     18 CA        -73.5903   30.8479  -73.9747 C.3       10 UNK         0.0862 
     19 C         -73.8399   32.1598  -74.7781 C.2       10 UNK         0.5551 
     20 N         -73.6302   32.1820  -76.0889 N.am      10 UNK        -0.7319 
     21 O         -74.2568   33.1680  -74.2128 O.2       10 UNK        -0.5018 
     22 N         -72.8078   29.8312  -74.6942 N.am      10 UNK        -0.4509 
     23 C         -71.5029   29.8718  -74.9919 C.2       10 UNK         0.4899 
     24 O         -70.7515   30.8027  -74.6971 O.2       10 UNK        -0.4839 
     25 CA        -70.9642   28.6515  -75.7638 C.3       9 UNK         0.0222 
     26 CB        -69.4236   28.6052  -75.8480 C.3       9 UNK        -0.1966 
     27 N         -71.5174   27.3946  -75.2464 N.am      9 UNK        -0.4218 
     28 C         -71.3353   26.8545  -74.0305 C.2       9 UNK         0.5020 
     29 O         -70.5492   27.2894  -73.1881 O.2       9 UNK        -0.5274 
     30 CA        -72.1872   25.6190  -73.6814 C.3       8 UNK         0.0270 
     31 CB        -73.3626   26.0252  -72.7747 C.3       8 UNK        -0.1976 
     32 N         -72.7167   24.9209  -74.8553 N.am      8 UNK        -0.4313 
     33 C         -71.9890   24.2128  -75.7295 C.2       8 UNK         0.5041 
     34 O         -70.7804   24.0084  -75.6121 O.2       8 UNK        -0.5577 
     35 CA        -72.7337   23.6693  -76.9601 C.3       7 UNK         0.0284 
     36 CB        -73.4612   22.3561  -76.6271 C.3       7 UNK        -0.1958 
     37 N         -73.6864   24.6411  -77.5060 N.am      7 UNK        -0.4454 
     38 C         -73.3410   25.7578  -78.1629 C.2       7 UNK         0.5089 
     39 O         -72.1782   26.0800  -78.4040 O.2       7 UNK        -0.5125 
     40 CA        -74.4848   26.6856  -78.6064 C.3       6 UNK         0.0408 
     41 CB        -75.0522   26.2347  -79.9612 C.3       6 UNK        -0.1791 
     42 N         -75.5671   26.7615  -77.6229 N.am      6 UNK        -0.4762 
     43 C         -75.4620   27.3742  -76.4324 C.2       6 UNK         0.5007 
     44 O         -74.4403   27.9442  -76.0481 O.2       6 UNK        -0.5032 
     45 CA        -76.6808   27.2783  -75.4886 C.3       5 UNK         0.0783 
     46 C46       -77.7549   28.3476  -75.8241 C.3       11 UNK        -0.0857 
     47 S47       -77.3121   30.0418  -75.3139 S.3       11 UNK        -0.2512 
     48 C48       -78.1889   30.1911  -73.7232 C.3       11 UNK         0.0225 
     49 N         -77.2871   25.9440  -75.4978 N.am      5 UNK        -0.4615 
     50 C         -76.6651   24.7744  -75.2970 C.2       4 UNK         0.5053 
     51 O         -75.4987   24.6799  -74.9228 O.2       4 UNK        -0.5105 
     52 CA        -77.4464   23.4924  -75.6460 C.3       4 UNK         0.0263 
     53 CB        -77.8024   22.7046  -74.3769 C.3       4 UNK        -0.1981 
     54 N         -78.6671   23.7376  -76.4224 N.am      4 UNK        -0.4224 
     55 C         -78.7281   24.2521  -77.6582 C.2       3 UNK         0.4895 
     56 O         -77.7336   24.5178  -78.3344 O.2       3 UNK        -0.5091 
     57 CA        -80.1255   24.6273  -78.1851 C.3       3 UNK         0.0250 
     58 CB        -80.9359   23.3781  -78.5844 C.3       3 UNK        -0.1996 
     59 N         -80.8780   25.5119  -77.2748 N.am      3 UNK        -0.4254 
     60 C         -81.3622   25.2339  -76.0547 C.2       2 UNK         0.5004 
     61 O         -81.2847   24.1243  -75.5181 O.2       2 UNK        -0.5226 
     62 CA        -82.0195   26.3921  -75.2937 C.3       2 UNK         0.0269 
     63 CB        -83.4689   26.6132  -75.7587 C.3       2 UNK        -0.1926 
     64 N         -82.0122   26.0572  -73.8736 N.am      2 UNK        -0.4687 
     65 C         -81.8172   26.9008  -72.8541 C.2       1 UNK         0.5165 
     66 O         -81.6682   28.1149  -72.9946 O.2       1 UNK        -0.5079 
     67 H67       -85.7339   25.2725  -71.4862 H         1 UNK         0.0900 
     68 H68       -84.6526   26.4074  -70.6940 H         1 UNK         0.0900 
     69 H69       -84.6534   26.2570  -72.4618 H         1 UNK         0.0900 
     70 H70       -81.6972   24.1929  -71.3133 H         1 UNK         0.2959 
     71 H71       -82.3921   26.9459  -70.8079 H         1 UNK         0.1079 
     72 H72       -80.3956   25.9359  -69.7989 H         1 UNK         0.0837 
     73 H73       -79.9899   27.3183  -70.7633 H         1 UNK         0.0837 
     74 H74       -77.5731   25.7342  -70.0045 H         1 UNK         0.0685 
     75 H75       -76.7799   25.1994  -71.4678 H         1 UNK         0.0685 
     76 H76       -78.7250   27.6650  -72.8991 H         1 UNK         0.1434 
     77 H77       -76.0849   30.9482  -72.1877 H         1 UNK         0.1329 
     78 H78       -75.4951   27.2553  -70.0981 H         1 UNK         0.1335 
     79 H79       -74.2126   29.2020  -69.4763 H         1 UNK         0.0680 
     80 H80       -74.5937   30.7796  -70.1084 H         1 UNK         0.0680 
     81 H81       -73.7502   31.8314  -72.0217 H         1 UNK         0.1032 
     82 H82       -72.1145   31.5987  -72.5461 H         1 UNK         0.1032 
     83 H83       -74.5778   30.3986  -73.8987 H         1 UNK         0.0461 
     84 H84       -73.8037   33.0300  -76.6046 H         1 UNK         0.3453 
     85 H85       -73.3087   31.3547  -76.5648 H         1 UNK         0.3453 
     86 H86       -73.3519   29.0479  -75.0491 H         1 UNK         0.2984 
     87 H87       -71.3435   28.7453  -76.7824 H         1 UNK         0.0554 
     88 H88       -69.0366   29.4823  -76.3679 H         1 UNK         0.0847 
     89 H89       -69.0830   27.7269  -76.3962 H         1 UNK         0.0847 
     90 H90       -68.9613   28.5861  -74.8608 H         1 UNK         0.0847 
     91 H91       -72.2111   26.9573  -75.8381 H         1 UNK         0.3141 
     92 H92       -71.5508   24.9227  -73.1315 H         1 UNK         0.0743 
     93 H93       -74.0260   26.7373  -73.2683 H         1 UNK         0.0784 
     94 H94       -73.9592   25.1612  -72.4813 H         1 UNK         0.0784 
     95 H95       -73.0049   26.4982  -71.8592 H         1 UNK         0.0784 
     96 H96       -73.7280   24.9572  -74.9853 H         1 UNK         0.3213 
     97 H97       -71.9893   23.4568  -77.7308 H         1 UNK         0.0855 
     98 H98       -74.2124   22.4901  -75.8484 H         1 UNK         0.0814 
     99 H99       -72.7565   21.6040  -76.2696 H         1 UNK         0.0814 
    100 H100      -73.9567   21.9421  -77.5053 H         1 UNK         0.0814 
    101 H101      -74.6658   24.4765  -77.3254 H         1 UNK         0.3105 
    102 H102      -74.0700   27.6884  -78.7312 H         1 UNK         0.0547 
    103 H103      -74.2680   26.1952  -80.7186 H         1 UNK         0.0837 
    104 H104      -75.5001   25.2418  -79.9037 H         1 UNK         0.0837 
    105 H105      -75.8147   26.9252  -80.3218 H         1 UNK         0.0837 
    106 H106      -76.4219   26.2661  -77.8489 H         1 UNK         0.3020 
    107 H107      -76.3038   27.4456  -74.4784 H         1 UNK         0.1245 
    108 H108      -78.7013   28.0938  -75.3444 H         1 UNK         0.0781 
    109 H109      -77.9727   28.3577  -76.8940 H         1 UNK         0.0781 
    110 H110      -79.2280   29.8746  -73.8305 H         1 UNK         0.0836 
    111 H111      -78.2201   31.2426  -73.4338 H         1 UNK         0.0836 
    112 H112      -78.2483   25.8987  -75.7960 H         1 UNK         0.3022 
    113 H113      -76.7843   22.8749  -76.2561 H         1 UNK         0.0747 
    114 H114      -78.2181   21.7274  -74.6229 H         1 UNK         0.0793 
    115 H115      -76.9208   22.5345  -73.7569 H         1 UNK         0.0793 
    116 H116      -78.5349   23.2336  -73.7679 H         1 UNK         0.0793 
    117 H117      -79.5545   23.6067  -75.9395 H         1 UNK         0.3047 
    118 H118      -79.9662   25.2091  -79.0948 H         1 UNK         0.0822 
    119 H119      -81.8994   23.6530  -79.0135 H         1 UNK         0.0807 
    120 H120      -81.1240   22.7167  -77.7383 H         1 UNK         0.0807 
    121 H121      -80.4020   22.7945  -79.3356 H         1 UNK         0.0807 
    122 H122      -81.0026   26.4543  -77.6201 H         1 UNK         0.2946 
    123 H123      -81.4334   27.2985  -75.4634 H         1 UNK         0.1144 
    124 H124      -83.9384   27.4317  -75.2127 H         1 UNK         0.0793 
    125 H125      -84.0790   25.7208  -75.6121 H         1 UNK         0.0793 
    126 H126      -83.5091   26.8670  -76.8187 H         1 UNK         0.0793 
    127 H127      -82.0432   25.0630  -73.6811 H         1 UNK         0.2896 
@<TRIPOS>BOND
     1    1    2 1    
     2    1   67 1    
     3    1   68 1    
     4    1   69 1    
     5    2    3 2    
     6    2    4 am   BACKBONE|DICT|INTERRES
     7    4    5 1    
     8    4   70 1    
     9    5    6 1    
    10    5   65 1    
    11    5   71 1    
    12    6    7 1    
    13    6   72 1    
    14    6   73 1    
    15    7    8 1    
    16    8    9 1    
    17    8   74 1    
    18    8   75 1    
    19    9   10 ar   
    20    9   14 ar   
    21   10   11 ar   
    22   10   76 1    
    23   11   12 ar   
    24   11   48 1    
    25   12   13 ar   
    26   12   77 1    
    27   13   14 ar   
    28   13   15 1    
    29   14   78 1    
    30   15   16 1    
    31   15   79 1    
    32   15   80 1    
    33   16   17 1    
    34   17   18 1    
    35   17   81 1    
    36   17   82 1    
    37   18   19 1    
    38   18   22 1    
    39   18   83 1    
    40   19   20 am   BACKBONE|DICT|INTERRES
    41   19   21 2    
    42   20   84 1    
    43   20   85 1    
    44   22   23 am   BACKBONE|DICT|INTERRES
    45   22   86 1    
    46   23   24 2    
    47   23   25 1    
    48   25   26 1    
    49   25   27 1    
    50   25   87 1    
    51   26   88 1    
    52   26   89 1    
    53   26   90 1    
    54   27   28 am   BACKBONE|DICT|INTERRES
    55   27   91 1    
    56   28   29 2    
    57   28   30 1    
    58   30   31 1    
    59   30   32 1    
    60   30   92 1    
    61   31   93 1    
    62   31   94 1    
    63   31   95 1    
    64   32   33 am   BACKBONE|DICT|INTERRES
    65   32   96 1    
    66   33   34 2    
    67   33   35 1    
    68   35   36 1    
    69   35   37 1    
    70   35   97 1    
    71   36   98 1    
    72   36   99 1    
    73   36  100 1    
    74   37   38 am   BACKBONE|DICT|INTERRES
    75   37  101 1    
    76   38   39 2    
    77   38   40 1    
    78   40   41 1    
    79   40   42 1    
    80   40  102 1    
    81   41  103 1    
    82   41  104 1    
    83   41  105 1    
    84   42   43 am   BACKBONE|DICT|INTERRES
    85   42  106 1    
    86   43   44 2    
    87   43   45 1    
    88   45   46 1    
    89   45   49 1    
    90   45  107 1    
    91   46   47 1    
    92   46  108 1    
    93   46  109 1    
    94   47   48 1    
    95   48  110 1    
    96   48  111 1    
    97   49   50 am   BACKBONE|DICT|INTERRES
    98   49  112 1    
    99   50   51 2    
   100   50   52 1    
   101   52   53 1    
   102   52   54 1    
   103   52  113 1    
   104   53  114 1    
   105   53  115 1    
   106   53  116 1    
   107   54   55 am   BACKBONE|DICT|INTERRES
   108   54  117 1    
   109   55   56 2    
   110   55   57 1    
   111   57   58 1    
   112   57   59 1    
   113   57  118 1    
   114   58  119 1    
   115   58  120 1    
   116   58  121 1    
   117   59   60 am   BACKBONE|DICT|INTERRES
   118   59  122 1    
   119   60   61 2    
   120   60   62 1    
   121   62   63 1    
   122   62   64 1    
   123   62  123 1    
   124   63  124 1    
   125   63  125 1    
   126   63  126 1    
   127   64   65 am   BACKBONE|DICT|INTERRES
   128   64  127 1    
   129   65   66 2    
@<TRIPOS>SUBSTRUCTURE
     1 UNK         1 GROUP             0       ****    0 ROOT    
