@<TRIPOS>MOLECULE
3R135
127   129    1
SMALL
USER_CHARGES


@<TRIPOS>ATOM
      1 CA        -83.7901   24.8023  -69.1259 C.3       0 UNK        -0.1998 
      2 C         -83.7056   25.5249  -70.4620 C.2       0 UNK         0.4909 
      3 O         -84.7342   25.7579  -71.0987 O.2       0 UNK        -0.5240 
      4 N         -82.4892   25.8903  -70.8849 N.am      1 UNK        -0.4739 
      5 CA        -82.2073   26.5446  -72.1682 C.3       1 UNK         0.0864 
      6 C6        -80.7797   27.1459  -72.2080 C.3       11 UNK        -0.0881 
      7 S7        -80.4800   28.3283  -70.8497 S.3       11 UNK        -0.2682 
      8 C8        -80.4422   29.9205  -71.7295 C.3       11 UNK         0.0289 
      9 C9        -79.1967   30.0603  -72.5925 C.ar      11 UNK        -0.0687 
     10 C10       -79.2891   29.9882  -73.9852 C.ar      11 UNK        -0.0823 
     11 C11       -78.1465   30.1237  -74.7787 C.ar      11 UNK        -0.0830 
     12 C12       -76.9062   30.3429  -74.1716 C.ar      11 UNK        -0.1021 
     13 C13       -76.8003   30.4044  -72.7797 C.ar      11 UNK        -0.0753 
     14 C14       -77.9499   30.2690  -71.9960 C.ar      11 UNK        -0.0933 
     15 C15       -75.4501   30.6167  -72.1141 C.3       11 UNK         0.0166 
     16 S16       -74.6835   29.0311  -71.6574 S.3       11 UNK        -0.2615 
     17 C17       -73.7657   28.6031  -73.1779 C.3       11 UNK        -0.0865 
     18 CA        -72.2571   28.9676  -73.0764 C.3       10 UNK         0.0862 
     19 C         -71.3995   27.8570  -72.3935 C.2       10 UNK         0.5551 
     20 N         -70.2486   27.4679  -72.9295 N.am      10 UNK        -0.7319 
     21 O         -71.7766   27.3365  -71.3473 O.2       10 UNK        -0.5018 
     22 N         -71.7295   29.4179  -74.3757 N.am      10 UNK        -0.4509 
     23 C         -70.8194   30.3913  -74.5193 C.2       10 UNK         0.4899 
     24 O         -70.3840   31.0610  -73.5804 O.2       10 UNK        -0.4839 
     25 CA        -70.2995   30.6541  -75.9482 C.3       9 UNK         0.0222 
     26 CB        -69.0952   31.6191  -75.9738 C.3       9 UNK        -0.1966 
     27 N         -69.9746   29.4353  -76.6989 N.am      9 UNK        -0.4218 
     28 C         -69.1795   28.4202  -76.3313 C.2       9 UNK         0.5020 
     29 O         -68.6342   28.3422  -75.2292 O.2       9 UNK        -0.5274 
     30 CA        -68.9830   27.2927  -77.3686 C.3       8 UNK         0.0270 
     31 CB        -68.1346   26.1279  -76.8236 C.3       8 UNK        -0.1976 
     32 N         -70.2569   26.7588  -77.8581 N.am      8 UNK        -0.4313 
     33 C         -71.0858   27.3688  -78.7155 C.2       8 UNK         0.5041 
     34 O         -70.8343   28.4515  -79.2473 O.2       8 UNK        -0.5577 
     35 CA        -72.4386   26.6923  -78.9916 C.3       7 UNK         0.0284 
     36 CB        -72.3774   25.8865  -80.2992 C.3       7 UNK        -0.1958 
     37 N         -72.9164   25.8248  -77.9087 N.am      7 UNK        -0.4454 
     38 C         -73.2142   26.2259  -76.6653 C.2       7 UNK         0.5089 
     39 O         -73.0369   27.3707  -76.2387 O.2       7 UNK        -0.5125 
     40 CA        -73.8093   25.1551  -75.7376 C.3       6 UNK         0.0408 
     41 CB        -72.8514   24.8270  -74.5817 C.3       6 UNK        -0.1791 
     42 N         -75.0986   25.6037  -75.2117 N.am      6 UNK        -0.4762 
     43 C         -76.2145   25.6982  -75.9480 C.2       6 UNK         0.5007 
     44 O         -76.2993   25.2770  -77.1042 O.2       6 UNK        -0.5032 
     45 CA        -77.4512   26.3327  -75.2714 C.3       5 UNK         0.0783 
     46 C46       -78.2878   27.1906  -76.2590 C.3       11 UNK        -0.0857 
     47 S47       -77.3624   28.6035  -76.9632 S.3       11 UNK        -0.2512 
     48 C48       -78.2534   30.0415  -76.2933 C.3       11 UNK         0.0225 
     49 N         -78.2607   25.2661  -74.6737 N.am      5 UNK        -0.4615 
     50 C         -77.9023   24.5554  -73.5918 C.2       4 UNK         0.5053 
     51 O         -76.9425   24.8583  -72.8824 O.2       4 UNK        -0.5105 
     52 CA        -78.7100   23.2893  -73.2357 C.3       4 UNK         0.0263 
     53 CB        -79.2870   23.3560  -71.8107 C.3       4 UNK        -0.1981 
     54 N         -79.7813   22.9841  -74.1884 N.am      4 UNK        -0.4224 
     55 C         -79.5918   22.3706  -75.3673 C.2       3 UNK         0.4895 
     56 O         -78.5007   21.9376  -75.7389 O.2       3 UNK        -0.5091 
     57 CA        -80.8050   22.2240  -76.3079 C.3       3 UNK         0.0250 
     58 CB        -81.3785   20.8000  -76.2247 C.3       3 UNK        -0.1996 
     59 N         -81.8831   23.1884  -76.0679 N.am      3 UNK        -0.4254 
     60 C         -81.7703   24.5203  -76.1673 C.2       2 UNK         0.5004 
     61 O         -80.7306   25.0922  -76.4930 O.2       2 UNK        -0.5226 
     62 CA        -82.9962   25.3683  -75.7760 C.3       2 UNK         0.0269 
     63 CB        -84.3184   24.5698  -75.7025 C.3       2 UNK        -0.1926 
     64 N         -82.7694   26.0954  -74.5183 N.am      2 UNK        -0.4687 
     65 C         -82.4090   25.5617  -73.3404 C.2       1 UNK         0.5165 
     66 O         -82.2017   24.3563  -73.1695 O.2       1 UNK        -0.5079 
     67 H67       -84.4166   25.3643  -68.4338 H         1 UNK         0.0900 
     68 H68       -84.2310   23.8151  -69.2613 H         1 UNK         0.0900 
     69 H69       -82.8089   24.6753  -68.6685 H         1 UNK         0.0900 
     70 H70       -81.6805   25.6771  -70.3196 H         1 UNK         0.2959 
     71 H71       -82.9263   27.3585  -72.2871 H         1 UNK         0.1079 
     72 H72       -80.6004   27.6355  -73.1658 H         1 UNK         0.0837 
     73 H73       -80.0225   26.3653  -72.1348 H         1 UNK         0.0837 
     74 H74       -81.3495   30.0276  -72.3261 H         1 UNK         0.0685 
     75 H75       -80.4617   30.7279  -70.9961 H         1 UNK         0.0685 
     76 H76       -80.2514   29.8268  -74.4514 H         1 UNK         0.1434 
     77 H77       -76.0238   30.4529  -74.7869 H         1 UNK         0.1329 
     78 H78       -77.8741   30.3150  -70.9180 H         1 UNK         0.1335 
     79 H79       -74.7808   31.1860  -72.7614 H         1 UNK         0.0680 
     80 H80       -75.5783   31.2153  -71.2109 H         1 UNK         0.0680 
     81 H81       -73.9032   27.5424  -73.3839 H         1 UNK         0.1032 
     82 H82       -74.2295   29.1170  -74.0201 H         1 UNK         0.1032 
     83 H83       -72.1876   29.8187  -72.3966 H         1 UNK         0.0461 
     84 H84       -69.8733   27.9080  -73.7631 H         1 UNK         0.3453 
     85 H85       -69.7127   26.7540  -72.4633 H         1 UNK         0.3453 
     86 H86       -72.0218   28.8769  -75.1835 H         1 UNK         0.2984 
     87 H87       -71.1192   31.1335  -76.4850 H         1 UNK         0.0554 
     88 H88       -69.3471   32.5760  -75.5150 H         1 UNK         0.0847 
     89 H89       -68.7742   31.8272  -76.9944 H         1 UNK         0.0847 
     90 H90       -68.2417   31.2111  -75.4308 H         1 UNK         0.0847 
     91 H91       -70.3892   29.3590  -77.6257 H         1 UNK         0.3141 
     92 H92       -68.4442   27.7288  -78.2126 H         1 UNK         0.0743 
     93 H93       -68.6102   25.6477  -75.9673 H         1 UNK         0.0784 
     94 H94       -67.9671   25.3671  -77.5863 H         1 UNK         0.0784 
     95 H95       -67.1536   26.4771  -76.4984 H         1 UNK         0.0784 
     96 H96       -70.5656   25.8883  -77.4512 H         1 UNK         0.3213 
     97 H97       -73.1744   27.4900  -79.1159 H         1 UNK         0.0855 
     98 H98       -71.6793   25.0514  -80.2278 H         1 UNK         0.0814 
     99 H99       -72.0500   26.5142  -81.1294 H         1 UNK         0.0814 
    100 H100      -73.3559   25.4866  -80.5665 H         1 UNK         0.0814 
    101 H101      -73.1101   24.8651  -78.1583 H         1 UNK         0.3105 
    102 H102      -73.9735   24.2356  -76.3040 H         1 UNK         0.0547 
    103 H103      -71.9083   24.4306  -74.9599 H         1 UNK         0.0837 
    104 H104      -72.6122   25.7050  -73.9846 H         1 UNK         0.0837 
    105 H105      -73.2741   24.0741  -73.9162 H         1 UNK         0.0837 
    106 H106      -75.1256   25.9009  -74.2464 H         1 UNK         0.3020 
    107 H107      -77.1090   26.9938  -74.4709 H         1 UNK         0.1245 
    108 H108      -79.1852   27.5583  -75.7597 H         1 UNK         0.0781 
    109 H109      -78.6439   26.5808  -77.0909 H         1 UNK         0.0781 
    110 H110      -79.2952   29.9994  -76.6154 H         1 UNK         0.0836 
    111 H111      -77.8354   30.9499  -76.7293 H         1 UNK         0.0836 
    112 H112      -79.0578   24.9629  -75.2224 H         1 UNK         0.3022 
    113 H113      -77.9956   22.4634  -73.2495 H         1 UNK         0.0747 
    114 H114      -79.7555   22.4119  -71.5326 H         1 UNK         0.0793 
    115 H115      -78.5038   23.5537  -71.0777 H         1 UNK         0.0793 
    116 H116      -80.0352   24.1380  -71.7048 H         1 UNK         0.0793 
    117 H117      -80.7097   23.3242  -73.9501 H         1 UNK         0.3047 
    118 H118      -80.4417   22.3881  -77.3247 H         1 UNK         0.0822 
    119 H119      -82.1742   20.6480  -76.9543 H         1 UNK         0.0807 
    120 H120      -81.7829   20.5854  -75.2346 H         1 UNK         0.0807 
    121 H121      -80.6078   20.0555  -76.4301 H         1 UNK         0.0807 
    122 H122      -82.7643   22.8113  -75.7501 H         1 UNK         0.2946 
    123 H123      -83.1050   26.1171  -76.5626 H         1 UNK         0.1144 
    124 H124      -85.1640   25.2365  -75.5326 H         1 UNK         0.0793 
    125 H125      -84.3185   23.8351  -74.8965 H         1 UNK         0.0793 
    126 H126      -84.5145   24.0422  -76.6370 H         1 UNK         0.0793 
    127 H127      -82.8799   27.0983  -74.5769 H         1 UNK         0.2896 
@<TRIPOS>BOND
     1    1    2 1    
     2    1   67 1    
     3    1   68 1    
     4    1   69 1    
     5    2    3 2    
     6    2    4 am   BACKBONE|DICT|INTERRES
     7    4    5 1    
     8    4   70 1    
     9    5    6 1    
    10    5   65 1    
    11    5   71 1    
    12    6    7 1    
    13    6   72 1    
    14    6   73 1    
    15    7    8 1    
    16    8    9 1    
    17    8   74 1    
    18    8   75 1    
    19    9   10 ar   
    20    9   14 ar   
    21   10   11 ar   
    22   10   76 1    
    23   11   12 ar   
    24   11   48 1    
    25   12   13 ar   
    26   12   77 1    
    27   13   14 ar   
    28   13   15 1    
    29   14   78 1    
    30   15   16 1    
    31   15   79 1    
    32   15   80 1    
    33   16   17 1    
    34   17   18 1    
    35   17   81 1    
    36   17   82 1    
    37   18   19 1    
    38   18   22 1    
    39   18   83 1    
    40   19   20 am   BACKBONE|DICT|INTERRES
    41   19   21 2    
    42   20   84 1    
    43   20   85 1    
    44   22   23 am   BACKBONE|DICT|INTERRES
    45   22   86 1    
    46   23   24 2    
    47   23   25 1    
    48   25   26 1    
    49   25   27 1    
    50   25   87 1    
    51   26   88 1    
    52   26   89 1    
    53   26   90 1    
    54   27   28 am   BACKBONE|DICT|INTERRES
    55   27   91 1    
    56   28   29 2    
    57   28   30 1    
    58   30   31 1    
    59   30   32 1    
    60   30   92 1    
    61   31   93 1    
    62   31   94 1    
    63   31   95 1    
    64   32   33 am   BACKBONE|DICT|INTERRES
    65   32   96 1    
    66   33   34 2    
    67   33   35 1    
    68   35   36 1    
    69   35   37 1    
    70   35   97 1    
    71   36   98 1    
    72   36   99 1    
    73   36  100 1    
    74   37   38 am   BACKBONE|DICT|INTERRES
    75   37  101 1    
    76   38   39 2    
    77   38   40 1    
    78   40   41 1    
    79   40   42 1    
    80   40  102 1    
    81   41  103 1    
    82   41  104 1    
    83   41  105 1    
    84   42   43 am   BACKBONE|DICT|INTERRES
    85   42  106 1    
    86   43   44 2    
    87   43   45 1    
    88   45   46 1    
    89   45   49 1    
    90   45  107 1    
    91   46   47 1    
    92   46  108 1    
    93   46  109 1    
    94   47   48 1    
    95   48  110 1    
    96   48  111 1    
    97   49   50 am   BACKBONE|DICT|INTERRES
    98   49  112 1    
    99   50   51 2    
   100   50   52 1    
   101   52   53 1    
   102   52   54 1    
   103   52  113 1    
   104   53  114 1    
   105   53  115 1    
   106   53  116 1    
   107   54   55 am   BACKBONE|DICT|INTERRES
   108   54  117 1    
   109   55   56 2    
   110   55   57 1    
   111   57   58 1    
   112   57   59 1    
   113   57  118 1    
   114   58  119 1    
   115   58  120 1    
   116   58  121 1    
   117   59   60 am   BACKBONE|DICT|INTERRES
   118   59  122 1    
   119   60   61 2    
   120   60   62 1    
   121   62   63 1    
   122   62   64 1    
   123   62  123 1    
   124   63  124 1    
   125   63  125 1    
   126   63  126 1    
   127   64   65 am   BACKBONE|DICT|INTERRES
   128   64  127 1    
   129   65   66 2    
@<TRIPOS>SUBSTRUCTURE
     1 UNK         1 GROUP             0       ****    0 ROOT    
