@<TRIPOS>MOLECULE
3R135
127   129    1
SMALL
USER_CHARGES


@<TRIPOS>ATOM
      1 CA        -82.9112   32.3722  -74.1426 C.3       0 UNK        -0.1998 
      2 C         -82.1279   31.0911  -73.8978 C.2       0 UNK         0.4909 
      3 O         -81.3462   30.6795  -74.7553 O.2       0 UNK        -0.5240 
      4 N         -82.3267   30.4650  -72.7313 N.am      1 UNK        -0.4739 
      5 CA        -81.6928   29.2038  -72.3319 C.3       1 UNK         0.0864 
      6 C6        -81.9116   28.9120  -70.8245 C.3       11 UNK        -0.0881 
      7 S7        -81.0719   30.1428  -69.7652 S.3       11 UNK        -0.2682 
      8 C8        -79.5872   29.2366  -69.2100 C.3       11 UNK         0.0289 
      9 C9        -78.8182   28.6364  -70.3782 C.ar      11 UNK        -0.0687 
     10 C10       -78.8180   27.2534  -70.5808 C.ar      11 UNK        -0.0823 
     11 C11       -78.1914   26.7001  -71.6994 C.ar      11 UNK        -0.0830 
     12 C12       -77.5598   27.5475  -72.6156 C.ar      11 UNK        -0.1021 
     13 C13       -77.5206   28.9314  -72.4104 C.ar      11 UNK        -0.0753 
     14 C14       -78.1447   29.4661  -71.2796 C.ar      11 UNK        -0.0933 
     15 C15       -76.7877   29.8653  -73.3719 C.3       11 UNK         0.0166 
     16 S16       -76.8717   29.3638  -75.1257 S.3       11 UNK        -0.2615 
     17 C17       -75.7391   30.5822  -75.8804 C.3       11 UNK        -0.0865 
     18 CA        -74.4463   29.9546  -76.4876 C.3       10 UNK         0.0862 
     19 C         -73.5769   31.0134  -77.2347 C.2       10 UNK         0.5551 
     20 N         -72.2679   30.8392  -77.3573 N.am      10 UNK        -0.7319 
     21 O         -74.0976   32.0060  -77.7388 O.2       10 UNK        -0.5018 
     22 N         -73.7102   29.1005  -75.5362 N.am      10 UNK        -0.4509 
     23 C         -73.1478   29.5048  -74.3871 C.2       10 UNK         0.4899 
     24 O         -73.1092   30.6760  -74.0101 O.2       10 UNK        -0.4839 
     25 CA        -72.5425   28.4147  -73.4907 C.3       9 UNK         0.0222 
     26 CB        -73.6530   27.6189  -72.7893 C.3       9 UNK        -0.1966 
     27 N         -71.7136   27.5017  -74.2751 N.am      9 UNK        -0.4218 
     28 C         -70.3728   27.5117  -74.2899 C.2       9 UNK         0.5020 
     29 O         -69.6789   28.2101  -73.5492 O.2       9 UNK        -0.5274 
     30 CA        -69.6759   26.6041  -75.3232 C.3       8 UNK         0.0270 
     31 CB        -69.3507   25.2353  -74.7034 C.3       8 UNK        -0.1976 
     32 N         -70.4597   26.4048  -76.5448 N.am      8 UNK        -0.4313 
     33 C         -70.8665   27.3804  -77.3697 C.2       8 UNK         0.5041 
     34 O         -70.5197   28.5554  -77.2573 O.2       8 UNK        -0.5577 
     35 CA        -71.8713   27.0025  -78.4736 C.3       7 UNK         0.0284 
     36 CB        -71.1665   26.9283  -79.8373 C.3       7 UNK        -0.1958 
     37 N         -72.5964   25.7480  -78.2353 N.am      7 UNK        -0.4454 
     38 C         -73.4014   25.4887  -77.1946 C.2       7 UNK         0.5089 
     39 O         -73.6252   26.3027  -76.2924 O.2       7 UNK        -0.5125 
     40 CA        -74.0429   24.0856  -77.1852 C.3       6 UNK         0.0408 
     41 CB        -73.0109   22.9623  -77.4350 C.3       6 UNK        -0.1791 
     42 N         -74.8283   23.7993  -75.9803 N.am      6 UNK        -0.4762 
     43 C         -74.3922   23.6767  -74.7146 C.2       6 UNK         0.5007 
     44 O         -73.2104   23.7870  -74.3838 O.2       6 UNK        -0.5032 
     45 CA        -75.4473   23.3783  -73.6235 C.3       5 UNK         0.0783 
     46 C46       -75.5756   24.5826  -72.6612 C.3       11 UNK        -0.0857 
     47 S47       -76.7719   24.3263  -71.3059 S.3       11 UNK        -0.2512 
     48 C48       -78.2459   25.1949  -71.9327 C.3       11 UNK         0.0225 
     49 N         -76.7424   22.9900  -74.1974 N.am      5 UNK        -0.4615 
     50 C         -77.0412   21.7581  -74.6258 C.2       4 UNK         0.5053 
     51 O         -76.2644   20.8054  -74.5568 O.2       4 UNK        -0.5105 
     52 CA        -78.4386   21.5421  -75.2364 C.3       4 UNK         0.0263 
     53 CB        -79.3917   20.9610  -74.1789 C.3       4 UNK        -0.1981 
     54 N         -79.0606   22.7324  -75.8305 N.am      4 UNK        -0.4224 
     55 C         -78.5649   23.4666  -76.8386 C.2       3 UNK         0.4895 
     56 O         -77.4531   23.2831  -77.3334 O.2       3 UNK        -0.5091 
     57 CA        -79.4560   24.5914  -77.4001 C.3       3 UNK         0.0250 
     58 CB        -80.0743   24.1615  -78.7406 C.3       3 UNK        -0.1996 
     59 N         -80.5289   25.0063  -76.4882 N.am      3 UNK        -0.4254 
     60 C         -80.3320   25.7551  -75.3962 C.2       2 UNK         0.5004 
     61 O         -79.2281   26.1801  -75.0532 O.2       2 UNK        -0.5226 
     62 CA        -81.5612   26.0353  -74.5240 C.3       2 UNK         0.0269 
     63 CB        -81.9206   24.8077  -73.6656 C.3       2 UNK        -0.1926 
     64 N         -81.2831   27.1768  -73.6553 N.am      2 UNK        -0.4687 
     65 C         -82.2023   28.0327  -73.1955 C.2       1 UNK         0.5165 
     66 O         -83.4123   27.9172  -73.4096 O.2       1 UNK        -0.5079 
     67 H67       -82.2273   33.2039  -74.3093 H         1 UNK         0.0900 
     68 H68       -83.5393   32.2644  -75.0264 H         1 UNK         0.0900 
     69 H69       -83.5533   32.6254  -73.2991 H         1 UNK         0.0900 
     70 H70       -82.9854   30.8469  -72.0682 H         1 UNK         0.2959 
     71 H71       -80.6225   29.3073  -72.5179 H         1 UNK         0.1079 
     72 H72       -81.5620   27.9127  -70.5604 H         1 UNK         0.0837 
     73 H73       -82.9768   28.9216  -70.5854 H         1 UNK         0.0837 
     74 H74       -79.8884   28.4613  -68.5037 H         1 UNK         0.0685 
     75 H75       -78.9380   29.9187  -68.6593 H         1 UNK         0.0685 
     76 H76       -79.3307   26.6075  -69.8809 H         1 UNK         0.1434 
     77 H77       -77.1080   27.1342  -73.5039 H         1 UNK         0.1329 
     78 H78       -78.1367   30.5348  -71.1131 H         1 UNK         0.1335 
     79 H79       -75.7452   29.9249  -73.0622 H         1 UNK         0.0680 
     80 H80       -77.1930   30.8752  -73.2916 H         1 UNK         0.0680 
     81 H81       -75.4803   31.3516  -75.1512 H         1 UNK         0.1032 
     82 H82       -76.3060   31.0970  -76.6582 H         1 UNK         0.1032 
     83 H83       -74.7709   29.2718  -77.2736 H         1 UNK         0.0461 
     84 H84       -71.7314   31.5360  -77.8480 H         1 UNK         0.3453 
     85 H85       -71.8012   30.0035  -77.0206 H         1 UNK         0.3453 
     86 H86       -73.7080   28.1099  -75.7631 H         1 UNK         0.2984 
     87 H87       -71.9453   28.9044  -72.7187 H         1 UNK         0.0554 
     88 H88       -73.2381   26.8299  -72.1624 H         1 UNK         0.0847 
     89 H89       -74.3278   27.1597  -73.5112 H         1 UNK         0.0847 
     90 H90       -74.2518   28.2627  -72.1444 H         1 UNK         0.0847 
     91 H91       -72.2016   26.9000  -74.9305 H         1 UNK         0.3141 
     92 H92       -68.7389   27.0878  -75.6070 H         1 UNK         0.0743 
     93 H93       -70.2558   24.6927  -74.4254 H         1 UNK         0.0784 
     94 H94       -68.7817   24.6110  -75.3926 H         1 UNK         0.0784 
     95 H95       -68.7490   25.3494  -73.8005 H         1 UNK         0.0784 
     96 H96       -70.7906   25.4683  -76.7234 H         1 UNK         0.3213 
     97 H97       -72.6123   27.8038  -78.5153 H         1 UNK         0.0855 
     98 H98       -71.8789   26.7638  -80.6459 H         1 UNK         0.0814 
     99 H99       -70.4286   26.1256  -79.8683 H         1 UNK         0.0814 
    100 H100      -70.6427   27.8601  -80.0567 H         1 UNK         0.0814 
    101 H101      -72.4808   25.0303  -78.9364 H         1 UNK         0.3105 
    102 H102      -74.7577   24.0710  -78.0091 H         1 UNK         0.0547 
    103 H103      -73.4741   21.9787  -77.3557 H         1 UNK         0.0837 
    104 H104      -72.1872   22.9980  -76.7213 H         1 UNK         0.0837 
    105 H105      -72.5796   23.0245  -78.4342 H         1 UNK         0.0837 
    106 H106      -75.8214   23.6818  -76.1520 H         1 UNK         0.3020 
    107 H107      -75.0612   22.5353  -73.0453 H         1 UNK         0.1245 
    108 H108      -75.8390   25.4732  -73.2230 H         1 UNK         0.0781 
    109 H109      -74.6106   24.7938  -72.1974 H         1 UNK         0.0781 
    110 H110      -79.1240   24.7773  -71.4380 H         1 UNK         0.0836 
    111 H111      -78.3744   24.9790  -72.9911 H         1 UNK         0.0836 
    112 H112      -77.4319   23.7191  -74.2992 H         1 UNK         0.3022 
    113 H113      -78.3254   20.8065  -76.0355 H         1 UNK         0.0747 
    114 H114      -80.3541   20.6914  -74.6144 H         1 UNK         0.0793 
    115 H115      -78.9769   20.0555  -73.7334 H         1 UNK         0.0793 
    116 H116      -79.5741   21.6681  -73.3684 H         1 UNK         0.0793 
    117 H117      -79.9841   22.9650  -75.4979 H         1 UNK         0.3047 
    118 H118      -78.8090   25.4521  -77.5853 H         1 UNK         0.0822 
    119 H119      -80.6446   24.9730  -79.1933 H         1 UNK         0.0807 
    120 H120      -80.7402   23.3055  -78.6240 H         1 UNK         0.0807 
    121 H121      -79.2998   23.8764  -79.4543 H         1 UNK         0.0807 
    122 H122      -81.4631   24.6924  -76.7118 H         1 UNK         0.2946 
    123 H123      -82.3959   26.2789  -75.1860 H         1 UNK         0.1144 
    124 H124      -81.1017   24.5240  -73.0041 H         1 UNK         0.0793 
    125 H125      -82.1545   23.9432  -74.2878 H         1 UNK         0.0793 
    126 H126      -82.7965   25.0007  -73.0459 H         1 UNK         0.0793 
    127 H127      -80.2961   27.3501  -73.5000 H         1 UNK         0.2896 
@<TRIPOS>BOND
     1    1    2 1    
     2    1   67 1    
     3    1   68 1    
     4    1   69 1    
     5    2    3 2    
     6    2    4 am   BACKBONE|DICT|INTERRES
     7    4    5 1    
     8    4   70 1    
     9    5    6 1    
    10    5   65 1    
    11    5   71 1    
    12    6    7 1    
    13    6   72 1    
    14    6   73 1    
    15    7    8 1    
    16    8    9 1    
    17    8   74 1    
    18    8   75 1    
    19    9   10 ar   
    20    9   14 ar   
    21   10   11 ar   
    22   10   76 1    
    23   11   12 ar   
    24   11   48 1    
    25   12   13 ar   
    26   12   77 1    
    27   13   14 ar   
    28   13   15 1    
    29   14   78 1    
    30   15   16 1    
    31   15   79 1    
    32   15   80 1    
    33   16   17 1    
    34   17   18 1    
    35   17   81 1    
    36   17   82 1    
    37   18   19 1    
    38   18   22 1    
    39   18   83 1    
    40   19   20 am   BACKBONE|DICT|INTERRES
    41   19   21 2    
    42   20   84 1    
    43   20   85 1    
    44   22   23 am   BACKBONE|DICT|INTERRES
    45   22   86 1    
    46   23   24 2    
    47   23   25 1    
    48   25   26 1    
    49   25   27 1    
    50   25   87 1    
    51   26   88 1    
    52   26   89 1    
    53   26   90 1    
    54   27   28 am   BACKBONE|DICT|INTERRES
    55   27   91 1    
    56   28   29 2    
    57   28   30 1    
    58   30   31 1    
    59   30   32 1    
    60   30   92 1    
    61   31   93 1    
    62   31   94 1    
    63   31   95 1    
    64   32   33 am   BACKBONE|DICT|INTERRES
    65   32   96 1    
    66   33   34 2    
    67   33   35 1    
    68   35   36 1    
    69   35   37 1    
    70   35   97 1    
    71   36   98 1    
    72   36   99 1    
    73   36  100 1    
    74   37   38 am   BACKBONE|DICT|INTERRES
    75   37  101 1    
    76   38   39 2    
    77   38   40 1    
    78   40   41 1    
    79   40   42 1    
    80   40  102 1    
    81   41  103 1    
    82   41  104 1    
    83   41  105 1    
    84   42   43 am   BACKBONE|DICT|INTERRES
    85   42  106 1    
    86   43   44 2    
    87   43   45 1    
    88   45   46 1    
    89   45   49 1    
    90   45  107 1    
    91   46   47 1    
    92   46  108 1    
    93   46  109 1    
    94   47   48 1    
    95   48  110 1    
    96   48  111 1    
    97   49   50 am   BACKBONE|DICT|INTERRES
    98   49  112 1    
    99   50   51 2    
   100   50   52 1    
   101   52   53 1    
   102   52   54 1    
   103   52  113 1    
   104   53  114 1    
   105   53  115 1    
   106   53  116 1    
   107   54   55 am   BACKBONE|DICT|INTERRES
   108   54  117 1    
   109   55   56 2    
   110   55   57 1    
   111   57   58 1    
   112   57   59 1    
   113   57  118 1    
   114   58  119 1    
   115   58  120 1    
   116   58  121 1    
   117   59   60 am   BACKBONE|DICT|INTERRES
   118   59  122 1    
   119   60   61 2    
   120   60   62 1    
   121   62   63 1    
   122   62   64 1    
   123   62  123 1    
   124   63  124 1    
   125   63  125 1    
   126   63  126 1    
   127   64   65 am   BACKBONE|DICT|INTERRES
   128   64  127 1    
   129   65   66 2    
@<TRIPOS>SUBSTRUCTURE
     1 UNK         1 GROUP             0       ****    0 ROOT    
