@<TRIPOS>MOLECULE
3R135
127   129    1
SMALL
USER_CHARGES


@<TRIPOS>ATOM
      1 CA        -86.9244   28.3490  -74.4660 C.3       0 UNK        -0.1998 
      2 C         -85.4725   28.0434  -74.1289 C.2       0 UNK         0.4909 
      3 O         -85.1882   27.5864  -73.0212 O.2       0 UNK        -0.5240 
      4 N         -84.5579   28.2980  -75.0751 N.am      1 UNK        -0.4739 
      5 CA        -83.1166   28.0367  -74.9826 C.3       1 UNK         0.0864 
      6 C6        -82.4157   28.9056  -73.8971 C.3       11 UNK        -0.0881 
      7 S7        -80.6190   29.0608  -74.1795 S.3       11 UNK        -0.2682 
      8 C8        -80.0508   29.6632  -72.5604 C.3       11 UNK         0.0289 
      9 C9        -78.6220   29.2200  -72.2856 C.ar      11 UNK        -0.0687 
     10 C10       -78.3691   28.1843  -71.3814 C.ar      11 UNK        -0.0823 
     11 C11       -77.0587   27.7736  -71.1183 C.ar      11 UNK        -0.0830 
     12 C12       -75.9977   28.4014  -71.7784 C.ar      11 UNK        -0.1021 
     13 C13       -76.2378   29.4323  -72.6914 C.ar      11 UNK        -0.0753 
     14 C14       -77.5520   29.8437  -72.9336 C.ar      11 UNK        -0.0933 
     15 C15       -75.0872   30.0751  -73.4501 C.3       11 UNK         0.0166 
     16 S16       -74.2459   31.3559  -72.4681 S.3       11 UNK        -0.2615 
     17 C17       -72.8450   30.4256  -71.7518 C.3       11 UNK        -0.0865 
     18 CA        -71.5400   30.5995  -72.5754 C.3       10 UNK         0.0862 
     19 C         -70.3074   29.9985  -71.8356 C.2       10 UNK         0.5551 
     20 N         -69.5215   29.1130  -72.4385 N.am      10 UNK        -0.7319 
     21 O         -70.0516   30.3531  -70.6875 O.2       10 UNK        -0.5018 
     22 N         -71.7081   30.1041  -73.9495 N.am      10 UNK        -0.4509 
     23 C         -71.0794   30.5789  -75.0298 C.2       10 UNK         0.4899 
     24 O         -70.3176   31.5471  -75.0118 O.2       10 UNK        -0.4839 
     25 CA        -71.3536   29.8297  -76.3503 C.3       9 UNK         0.0222 
     26 CB        -70.2745   30.0933  -77.4217 C.3       9 UNK        -0.1966 
     27 N         -71.5631   28.3847  -76.1720 N.am      9 UNK        -0.4218 
     28 C         -70.7017   27.5027  -75.6336 C.2       9 UNK         0.5020 
     29 O         -69.6066   27.8221  -75.1682 O.2       9 UNK        -0.5274 
     30 CA        -71.1260   26.0227  -75.5568 C.3       8 UNK         0.0270 
     31 CB        -71.2506   25.5748  -74.0901 C.3       8 UNK        -0.1976 
     32 N         -72.3784   25.7393  -76.2646 N.am      8 UNK        -0.4313 
     33 C         -72.4755   25.6092  -77.5973 C.2       8 UNK         0.5041 
     34 O         -71.5003   25.6328  -78.3495 O.2       8 UNK        -0.5577 
     35 CA        -73.8789   25.4491  -78.2172 C.3       7 UNK         0.0284 
     36 CB        -74.1168   23.9844  -78.6198 C.3       7 UNK        -0.1958 
     37 N         -74.9887   25.8989  -77.3712 N.am      7 UNK        -0.4454 
     38 C         -75.1521   27.1343  -76.8757 C.2       7 UNK         0.5089 
     39 O         -74.3871   28.0725  -77.1032 O.2       7 UNK        -0.5125 
     40 CA        -76.3166   27.3287  -75.8886 C.3       6 UNK         0.0408 
     41 CB        -77.6184   27.6532  -76.6336 C.3       6 UNK        -0.1791 
     42 N         -76.5261   26.1770  -75.0043 N.am      6 UNK        -0.4762 
     43 C         -75.6028   25.6525  -74.1827 C.2       6 UNK         0.5007 
     44 O         -74.4570   26.0911  -74.0822 O.2       6 UNK        -0.5032 
     45 CA        -75.9995   24.3829  -73.4063 C.3       5 UNK         0.0783 
     46 C46       -76.8349   24.6910  -72.1409 C.3       11 UNK        -0.0857 
     47 S47       -75.7943   25.2962  -70.7713 S.3       11 UNK        -0.2512 
     48 C48       -76.7978   26.6644  -70.1053 C.3       11 UNK         0.0225 
     49 N         -76.6996   23.4564  -74.2950 N.am      5 UNK        -0.4615 
     50 C         -76.0946   22.5749  -75.1011 C.2       4 UNK         0.5053 
     51 O         -74.8778   22.3915  -75.1222 O.2       4 UNK        -0.5105 
     52 CA        -76.9913   21.7576  -76.0497 C.3       4 UNK         0.0263 
     53 CB        -77.3326   20.3963  -75.4230 C.3       4 UNK        -0.1981 
     54 N         -78.2328   22.4424  -76.4220 N.am      4 UNK        -0.4224 
     55 C         -78.2909   23.5490  -77.1757 C.2       3 UNK         0.4895 
     56 O         -77.3029   24.1052  -77.6543 O.2       3 UNK        -0.5091 
     57 CA        -79.6828   24.1684  -77.3920 C.3       3 UNK         0.0250 
     58 CB        -80.4040   23.4742  -78.5581 C.3       3 UNK        -0.1996 
     59 N         -80.5545   24.1733  -76.2087 N.am      3 UNK        -0.4254 
     60 C         -80.2306   24.6558  -75.0006 C.2       2 UNK         0.5004 
     61 O         -79.1087   25.0665  -74.7018 O.2       2 UNK        -0.5226 
     62 CA        -81.3594   24.7494  -73.9662 C.3       2 UNK         0.0269 
     63 CB        -80.8485   24.4819  -72.5386 C.3       2 UNK        -0.1926 
     64 N         -81.9126   26.0988  -74.0265 N.am      2 UNK        -0.4687 
     65 C         -82.8292   26.5161  -74.9084 C.2       1 UNK         0.5165 
     66 O         -83.4180   25.7525  -75.6786 O.2       1 UNK        -0.5079 
     67 H67       -87.0336   28.7566  -75.4709 H         1 UNK         0.0900 
     68 H68       -87.3286   29.0744  -73.7605 H         1 UNK         0.0900 
     69 H69       -87.5231   27.4408  -74.4019 H         1 UNK         0.0900 
     70 H70       -84.8700   28.6444  -75.9721 H         1 UNK         0.2959 
     71 H71       -82.7172   28.3477  -75.9496 H         1 UNK         0.1079 
     72 H72       -82.6150   28.5176  -72.8965 H         1 UNK         0.0837 
     73 H73       -82.8287   29.9157  -73.9103 H         1 UNK         0.0837 
     74 H74       -80.1141   30.7521  -72.5390 H         1 UNK         0.0685 
     75 H75       -80.7119   29.3016  -71.7716 H         1 UNK         0.0685 
     76 H76       -79.1952   27.7010  -70.8778 H         1 UNK         0.1434 
     77 H77       -74.9860   28.0711  -71.5915 H         1 UNK         0.1329 
     78 H78       -77.7473   30.6380  -73.6411 H         1 UNK         0.1335 
     79 H79       -75.4569   30.5354  -74.3678 H         1 UNK         0.0680 
     80 H80       -74.3818   29.3067  -73.7678 H         1 UNK         0.0680 
     81 H81       -72.7042   30.7955  -70.7343 H         1 UNK         0.1032 
     82 H82       -73.0994   29.3703  -71.6509 H         1 UNK         0.1032 
     83 H83       -71.3413   31.6716  -72.6308 H         1 UNK         0.0461 
     84 H84       -69.6875   28.8215  -73.3952 H         1 UNK         0.3453 
     85 H85       -68.7284   28.7450  -71.9383 H         1 UNK         0.3453 
     86 H86       -72.2902   29.2885  -74.0596 H         1 UNK         0.2984 
     87 H87       -72.2972   30.2247  -76.7296 H         1 UNK         0.0554 
     88 H88       -70.5009   29.5688  -78.3500 H         1 UNK         0.0847 
     89 H89       -69.2868   29.7733  -77.0879 H         1 UNK         0.0847 
     90 H90       -70.2086   31.1556  -77.6596 H         1 UNK         0.0847 
     91 H91       -72.4607   28.0407  -76.5021 H         1 UNK         0.3141 
     92 H92       -70.3296   25.4344  -76.0175 H         1 UNK         0.0743 
     93 H93       -71.6047   24.5466  -74.0133 H         1 UNK         0.0784 
     94 H94       -70.2840   25.6228  -73.5871 H         1 UNK         0.0784 
     95 H95       -71.9345   26.2106  -73.5274 H         1 UNK         0.0784 
     96 H96       -73.2225   25.7312  -75.6998 H         1 UNK         0.3213 
     97 H97       -73.8967   26.0597  -79.1221 H         1 UNK         0.0855 
     98 H98       -73.3113   23.6150  -79.2561 H         1 UNK         0.0814 
     99 H99       -75.0449   23.8724  -79.1805 H         1 UNK         0.0814 
    100 H100      -74.1704   23.3315  -77.7477 H         1 UNK         0.0814 
    101 H101      -75.7140   25.2133  -77.1790 H         1 UNK         0.3105 
    102 H102      -76.0724   28.1798  -75.2548 H         1 UNK         0.0547 
    103 H103      -77.5151   28.5699  -77.2152 H         1 UNK         0.0837 
    104 H104      -77.8942   26.8579  -77.3251 H         1 UNK         0.0837 
    105 H105      -78.4465   27.7992  -75.9400 H         1 UNK         0.0837 
    106 H106      -77.4596   25.7686  -74.9985 H         1 UNK         0.3020 
    107 H107      -75.0715   23.9034  -73.0845 H         1 UNK         0.1245 
    108 H108      -77.3247   23.7829  -71.7861 H         1 UNK         0.0781 
    109 H109      -77.6394   25.3940  -72.3624 H         1 UNK         0.0781 
    110 H110      -76.2805   27.0914  -69.2452 H         1 UNK         0.0836 
    111 H111      -77.7349   26.2542  -69.7257 H         1 UNK         0.0836 
    112 H112      -77.6955   23.6120  -74.3960 H         1 UNK         0.3022 
    113 H113      -76.4202   21.5802  -76.9638 H         1 UNK         0.0747 
    114 H114      -77.8962   19.7703  -76.1151 H         1 UNK         0.0793 
    115 H115      -76.4257   19.8497  -75.1603 H         1 UNK         0.0793 
    116 H116      -77.9218   20.5068  -74.5117 H         1 UNK         0.0793 
    117 H117      -79.0956   22.0587  -76.0644 H         1 UNK         0.3047 
    118 H118      -79.5288   25.2119  -77.6708 H         1 UNK         0.0822 
    119 H119      -80.6427   22.4355  -78.3263 H         1 UNK         0.0807 
    120 H120      -79.7845   23.4739  -79.4563 H         1 UNK         0.0807 
    121 H121      -81.3340   23.9844  -78.8103 H         1 UNK         0.0807 
    122 H122      -81.5142   23.8970  -76.3647 H         1 UNK         0.2946 
    123 H123      -82.1306   24.0123  -74.2018 H         1 UNK         0.1144 
    124 H124      -80.3757   23.5014  -72.4699 H         1 UNK         0.0793 
    125 H125      -80.1128   25.2225  -72.2223 H         1 UNK         0.0793 
    126 H126      -81.6666   24.4989  -71.8184 H         1 UNK         0.0793 
    127 H127      -81.4240   26.8047  -73.4924 H         1 UNK         0.2896 
@<TRIPOS>BOND
     1    1    2 1    
     2    1   67 1    
     3    1   68 1    
     4    1   69 1    
     5    2    3 2    
     6    2    4 am   BACKBONE|DICT|INTERRES
     7    4    5 1    
     8    4   70 1    
     9    5    6 1    
    10    5   65 1    
    11    5   71 1    
    12    6    7 1    
    13    6   72 1    
    14    6   73 1    
    15    7    8 1    
    16    8    9 1    
    17    8   74 1    
    18    8   75 1    
    19    9   10 ar   
    20    9   14 ar   
    21   10   11 ar   
    22   10   76 1    
    23   11   12 ar   
    24   11   48 1    
    25   12   13 ar   
    26   12   77 1    
    27   13   14 ar   
    28   13   15 1    
    29   14   78 1    
    30   15   16 1    
    31   15   79 1    
    32   15   80 1    
    33   16   17 1    
    34   17   18 1    
    35   17   81 1    
    36   17   82 1    
    37   18   19 1    
    38   18   22 1    
    39   18   83 1    
    40   19   20 am   BACKBONE|DICT|INTERRES
    41   19   21 2    
    42   20   84 1    
    43   20   85 1    
    44   22   23 am   BACKBONE|DICT|INTERRES
    45   22   86 1    
    46   23   24 2    
    47   23   25 1    
    48   25   26 1    
    49   25   27 1    
    50   25   87 1    
    51   26   88 1    
    52   26   89 1    
    53   26   90 1    
    54   27   28 am   BACKBONE|DICT|INTERRES
    55   27   91 1    
    56   28   29 2    
    57   28   30 1    
    58   30   31 1    
    59   30   32 1    
    60   30   92 1    
    61   31   93 1    
    62   31   94 1    
    63   31   95 1    
    64   32   33 am   BACKBONE|DICT|INTERRES
    65   32   96 1    
    66   33   34 2    
    67   33   35 1    
    68   35   36 1    
    69   35   37 1    
    70   35   97 1    
    71   36   98 1    
    72   36   99 1    
    73   36  100 1    
    74   37   38 am   BACKBONE|DICT|INTERRES
    75   37  101 1    
    76   38   39 2    
    77   38   40 1    
    78   40   41 1    
    79   40   42 1    
    80   40  102 1    
    81   41  103 1    
    82   41  104 1    
    83   41  105 1    
    84   42   43 am   BACKBONE|DICT|INTERRES
    85   42  106 1    
    86   43   44 2    
    87   43   45 1    
    88   45   46 1    
    89   45   49 1    
    90   45  107 1    
    91   46   47 1    
    92   46  108 1    
    93   46  109 1    
    94   47   48 1    
    95   48  110 1    
    96   48  111 1    
    97   49   50 am   BACKBONE|DICT|INTERRES
    98   49  112 1    
    99   50   51 2    
   100   50   52 1    
   101   52   53 1    
   102   52   54 1    
   103   52  113 1    
   104   53  114 1    
   105   53  115 1    
   106   53  116 1    
   107   54   55 am   BACKBONE|DICT|INTERRES
   108   54  117 1    
   109   55   56 2    
   110   55   57 1    
   111   57   58 1    
   112   57   59 1    
   113   57  118 1    
   114   58  119 1    
   115   58  120 1    
   116   58  121 1    
   117   59   60 am   BACKBONE|DICT|INTERRES
   118   59  122 1    
   119   60   61 2    
   120   60   62 1    
   121   62   63 1    
   122   62   64 1    
   123   62  123 1    
   124   63  124 1    
   125   63  125 1    
   126   63  126 1    
   127   64   65 am   BACKBONE|DICT|INTERRES
   128   64  127 1    
   129   65   66 2    
@<TRIPOS>SUBSTRUCTURE
     1 UNK         1 GROUP             0       ****    0 ROOT    
