@<TRIPOS>MOLECULE
3R135
127   129    1
SMALL
USER_CHARGES


@<TRIPOS>ATOM
      1 CA        -85.2994   25.9009  -71.9936 C.3       0 UNK        -0.1998 
      2 C         -83.8930   25.9302  -72.5721 C.2       0 UNK         0.4909 
      3 O         -83.3267   24.8718  -72.8489 O.2       0 UNK        -0.5240 
      4 N         -83.3363   27.1342  -72.7695 N.am      1 UNK        -0.4739 
      5 CA        -81.9913   27.4495  -73.2846 C.3       1 UNK         0.0864 
      6 C6        -80.8361   26.8575  -72.4343 C.3       11 UNK        -0.0881 
      7 S7        -80.7691   27.6217  -70.7786 S.3       11 UNK        -0.2682 
      8 C8        -79.0120   27.3988  -70.3221 C.3       11 UNK         0.0289 
      9 C9        -77.9791   28.1411  -71.1771 C.ar      11 UNK        -0.0687 
     10 C10       -78.3237   29.1245  -72.1151 C.ar      11 UNK        -0.0823 
     11 C11       -77.3438   29.7557  -72.8876 C.ar      11 UNK        -0.0830 
     12 C12       -75.9997   29.4291  -72.6915 C.ar      11 UNK        -0.1021 
     13 C13       -75.6365   28.4666  -71.7463 C.ar      11 UNK        -0.0753 
     14 C14       -76.6282   27.8247  -70.9996 C.ar      11 UNK        -0.0933 
     15 C15       -74.1716   28.1243  -71.5349 C.3       11 UNK         0.0166 
     16 S16       -73.3905   29.3114  -70.4039 S.3       11 UNK        -0.2615 
     17 C17       -71.6288   28.8822  -70.5995 C.3       11 UNK        -0.0865 
     18 CA        -70.8699   29.8889  -71.5101 C.3       10 UNK         0.0862 
     19 C         -69.3249   29.7758  -71.3458 C.2       10 UNK         0.5551 
     20 N         -68.5364   29.8073  -72.4144 N.am      10 UNK        -0.7319 
     21 O         -68.8249   29.6759  -70.2279 O.2       10 UNK        -0.5018 
     22 N         -71.2967   29.7813  -72.9173 N.am      10 UNK        -0.4509 
     23 C         -71.9778   30.7024  -73.6112 C.2       10 UNK         0.4899 
     24 O         -72.3948   31.7551  -73.1274 O.2       10 UNK        -0.4839 
     25 CA        -72.2144   30.4308  -75.1123 C.3       9 UNK         0.0222 
     26 CB        -71.5402   31.5158  -75.9703 C.3       9 UNK        -0.1966 
     27 N         -71.7327   29.1155  -75.5534 N.am      9 UNK        -0.4218 
     28 C         -72.4367   27.9811  -75.4591 C.2       9 UNK         0.5020 
     29 O         -73.5802   27.9200  -75.0143 O.2       9 UNK        -0.5274 
     30 CA        -71.7136   26.6964  -75.8719 C.3       8 UNK         0.0270 
     31 CB        -70.8507   26.1689  -74.7078 C.3       8 UNK        -0.1976 
     32 N         -72.6870   25.6803  -76.2726 N.am      8 UNK        -0.4313 
     33 C         -72.4016   24.6348  -77.0602 C.2       8 UNK         0.5041 
     34 O         -71.2819   24.4210  -77.5291 O.2       8 UNK        -0.5577 
     35 CA        -73.5386   23.6537  -77.3895 C.3       7 UNK         0.0284 
     36 CB        -73.7723   22.6792  -76.2235 C.3       7 UNK        -0.1958 
     37 N         -74.7934   24.3160  -77.7470 N.am      7 UNK        -0.4454 
     38 C         -74.9934   25.0217  -78.8699 C.2       7 UNK         0.5089 
     39 O         -74.1423   25.1741  -79.7468 O.2       7 UNK        -0.5125 
     40 CA        -76.3773   25.6751  -79.0456 C.3       6 UNK         0.0408 
     41 CB        -77.3736   24.6877  -79.6721 C.3       6 UNK        -0.1791 
     42 N         -76.9158   26.1888  -77.7847 N.am      6 UNK        -0.4762 
     43 C         -76.3878   27.2206  -77.1082 C.2       6 UNK         0.5007 
     44 O         -75.4717   27.9154  -77.5486 O.2       6 UNK        -0.5032 
     45 CA        -76.9601   27.5041  -75.7042 C.3       5 UNK         0.0783 
     46 C46       -78.0630   28.5929  -75.7351 C.3       11 UNK        -0.0857 
     47 S47       -77.3451   30.2701  -75.6393 S.3       11 UNK        -0.2512 
     48 C48       -77.7466   30.7873  -73.9350 C.3       11 UNK         0.0225 
     49 N         -77.4121   26.2743  -75.0455 N.am      5 UNK        -0.4615 
     50 C         -76.5825   25.3646  -74.5133 C.2       4 UNK         0.5053 
     51 O         -75.3563   25.4589  -74.5250 O.2       4 UNK        -0.5105 
     52 CA        -77.2260   24.1075  -73.9051 C.3       4 UNK         0.0263 
     53 CB        -77.7149   24.3796  -72.4747 C.3       4 UNK        -0.1981 
     54 N         -78.3238   23.5781  -74.7184 N.am      4 UNK        -0.4224 
     55 C         -78.1609   23.0665  -75.9466 C.2       3 UNK         0.4895 
     56 O         -77.0711   22.9756  -76.5093 O.2       3 UNK        -0.5091 
     57 CA        -79.4241   22.6075  -76.6921 C.3       3 UNK         0.0250 
     58 CB        -79.7647   21.1541  -76.3262 C.3       3 UNK        -0.1996 
     59 N         -80.6031   23.4543  -76.4818 N.am      3 UNK        -0.4254 
     60 C         -80.6780   24.7698  -76.7325 C.2       2 UNK         0.5004 
     61 O         -79.7135   25.4605  -77.0648 O.2       2 UNK        -0.5226 
     62 CA        -82.0594   25.4239  -76.5722 C.3       2 UNK         0.0269 
     63 CB        -83.2312   24.4745  -76.8938 C.3       2 UNK        -0.1926 
     64 N         -82.2143   25.9297  -75.2114 N.am      2 UNK        -0.4687 
     65 C         -81.8045   27.1272  -74.7821 C.2       1 UNK         0.5165 
     66 O         -81.3066   27.9779  -75.5185 O.2       1 UNK        -0.5079 
     67 H67       -85.6821   26.9025  -71.7983 H         1 UNK         0.0900 
     68 H68       -85.9796   25.4065  -72.6865 H         1 UNK         0.0900 
     69 H69       -85.3060   25.3469  -71.0554 H         1 UNK         0.0900 
     70 H70       -83.8857   27.9503  -72.5371 H         1 UNK         0.2959 
     71 H71       -81.9123   28.5365  -73.2207 H         1 UNK         0.1079 
     72 H72       -80.9344   25.7771  -72.3222 H         1 UNK         0.0837 
     73 H73       -79.8798   27.0195  -72.9330 H         1 UNK         0.0837 
     74 H74       -78.8921   27.7250  -69.2882 H         1 UNK         0.0685 
     75 H75       -78.7906   26.3309  -70.3317 H         1 UNK         0.0685 
     76 H76       -79.3578   29.3991  -72.2625 H         1 UNK         0.1434 
     77 H77       -75.2347   29.9167  -73.2811 H         1 UNK         0.1329 
     78 H78       -76.3448   27.0778  -70.2705 H         1 UNK         0.1335 
     79 H79       -73.6490   28.1372  -72.4896 H         1 UNK         0.0680 
     80 H80       -74.0648   27.1138  -71.1376 H         1 UNK         0.0680 
     81 H81       -71.5249   27.8631  -70.9759 H         1 UNK         0.1032 
     82 H82       -71.2036   28.8720  -69.5941 H         1 UNK         0.1032 
     83 H83       -71.0962   30.8925  -71.1456 H         1 UNK         0.0461 
     84 H84       -67.5385   29.7396  -72.2889 H         1 UNK         0.3453 
     85 H85       -68.9185   29.9465  -73.3350 H         1 UNK         0.3453 
     86 H86       -70.9964   28.9484  -73.3995 H         1 UNK         0.2984 
     87 H87       -73.2918   30.4906  -75.2832 H         1 UNK         0.0554 
     88 H88       -71.9118   32.5082  -75.7110 H         1 UNK         0.0847 
     89 H89       -71.7435   31.3663  -77.0309 H         1 UNK         0.0847 
     90 H90       -70.4583   31.5282  -75.8329 H         1 UNK         0.0847 
     91 H91       -70.7971   29.0800  -75.9340 H         1 UNK         0.3141 
     92 H92       -71.0730   26.9277  -76.7258 H         1 UNK         0.0743 
     93 H93       -71.4608   25.9288  -73.8357 H         1 UNK         0.0784 
     94 H94       -70.3057   25.2682  -74.9905 H         1 UNK         0.0784 
     95 H95       -70.1086   26.9053  -74.3977 H         1 UNK         0.0784 
     96 H96       -73.6271   25.8157  -75.9077 H         1 UNK         0.3213 
     97 H97       -73.2213   23.0657  -78.2535 H         1 UNK         0.0855 
     98 H98       -74.1346   23.1919  -75.3322 H         1 UNK         0.0814 
     99 H99       -72.8485   22.1667  -75.9520 H         1 UNK         0.0814 
    100 H100      -74.5014   21.9131  -76.4877 H         1 UNK         0.0814 
    101 H101      -75.5793   24.1713  -77.1207 H         1 UNK         0.3105 
    102 H102      -76.2652   26.5189  -79.7298 H         1 UNK         0.0547 
    103 H103      -78.3549   25.1431  -79.8074 H         1 UNK         0.0837 
    104 H104      -77.4992   23.7958  -79.0592 H         1 UNK         0.0837 
    105 H105      -77.0288   24.3598  -80.6535 H         1 UNK         0.0837 
    106 H106      -77.7274   25.7165  -77.3976 H         1 UNK         0.3020 
    107 H107      -76.1307   27.8824  -75.1028 H         1 UNK         0.1245 
    108 H108      -78.7475   28.4661  -74.8967 H         1 UNK         0.0781 
    109 H109      -78.6865   28.5131  -76.6281 H         1 UNK         0.0781 
    110 H110      -78.8154   30.9997  -73.8795 H         1 UNK         0.0836 
    111 H111      -77.2381   31.7287  -73.7228 H         1 UNK         0.0836 
    112 H112      -78.4021   26.0807  -75.0801 H         1 UNK         0.3022 
    113 H113      -76.4521   23.3382  -73.8532 H         1 UNK         0.0747 
    114 H114      -78.0804   23.4695  -71.9989 H         1 UNK         0.0793 
    115 H115      -76.9054   24.7668  -71.8542 H         1 UNK         0.0793 
    116 H116      -78.5173   25.1144  -72.4567 H         1 UNK         0.0793 
    117 H117      -79.2539   23.6111  -74.3277 H         1 UNK         0.3047 
    118 H118      -79.1963   22.6401  -77.7591 H         1 UNK         0.0822 
    119 H119      -80.5839   20.7720  -76.9356 H         1 UNK         0.0807 
    120 H120      -80.0506   21.0563  -75.2781 H         1 UNK         0.0807 
    121 H121      -78.9083   20.4988  -76.4928 H         1 UNK         0.0807 
    122 H122      -81.4484   22.9809  -76.1976 H         1 UNK         0.2946 
    123 H123      -82.1009   26.2554  -77.2800 H         1 UNK         0.1144 
    124 H124      -83.3355   23.6758  -76.1586 H         1 UNK         0.0793 
    125 H125      -83.1070   24.0129  -77.8747 H         1 UNK         0.0793 
    126 H126      -84.1750   25.0198  -76.9159 H         1 UNK         0.0793 
    127 H127      -82.6144   25.3034  -74.5161 H         1 UNK         0.2896 
@<TRIPOS>BOND
     1    1    2 1    
     2    1   67 1    
     3    1   68 1    
     4    1   69 1    
     5    2    3 2    
     6    2    4 am   BACKBONE|DICT|INTERRES
     7    4    5 1    
     8    4   70 1    
     9    5    6 1    
    10    5   65 1    
    11    5   71 1    
    12    6    7 1    
    13    6   72 1    
    14    6   73 1    
    15    7    8 1    
    16    8    9 1    
    17    8   74 1    
    18    8   75 1    
    19    9   10 ar   
    20    9   14 ar   
    21   10   11 ar   
    22   10   76 1    
    23   11   12 ar   
    24   11   48 1    
    25   12   13 ar   
    26   12   77 1    
    27   13   14 ar   
    28   13   15 1    
    29   14   78 1    
    30   15   16 1    
    31   15   79 1    
    32   15   80 1    
    33   16   17 1    
    34   17   18 1    
    35   17   81 1    
    36   17   82 1    
    37   18   19 1    
    38   18   22 1    
    39   18   83 1    
    40   19   20 am   BACKBONE|DICT|INTERRES
    41   19   21 2    
    42   20   84 1    
    43   20   85 1    
    44   22   23 am   BACKBONE|DICT|INTERRES
    45   22   86 1    
    46   23   24 2    
    47   23   25 1    
    48   25   26 1    
    49   25   27 1    
    50   25   87 1    
    51   26   88 1    
    52   26   89 1    
    53   26   90 1    
    54   27   28 am   BACKBONE|DICT|INTERRES
    55   27   91 1    
    56   28   29 2    
    57   28   30 1    
    58   30   31 1    
    59   30   32 1    
    60   30   92 1    
    61   31   93 1    
    62   31   94 1    
    63   31   95 1    
    64   32   33 am   BACKBONE|DICT|INTERRES
    65   32   96 1    
    66   33   34 2    
    67   33   35 1    
    68   35   36 1    
    69   35   37 1    
    70   35   97 1    
    71   36   98 1    
    72   36   99 1    
    73   36  100 1    
    74   37   38 am   BACKBONE|DICT|INTERRES
    75   37  101 1    
    76   38   39 2    
    77   38   40 1    
    78   40   41 1    
    79   40   42 1    
    80   40  102 1    
    81   41  103 1    
    82   41  104 1    
    83   41  105 1    
    84   42   43 am   BACKBONE|DICT|INTERRES
    85   42  106 1    
    86   43   44 2    
    87   43   45 1    
    88   45   46 1    
    89   45   49 1    
    90   45  107 1    
    91   46   47 1    
    92   46  108 1    
    93   46  109 1    
    94   47   48 1    
    95   48  110 1    
    96   48  111 1    
    97   49   50 am   BACKBONE|DICT|INTERRES
    98   49  112 1    
    99   50   51 2    
   100   50   52 1    
   101   52   53 1    
   102   52   54 1    
   103   52  113 1    
   104   53  114 1    
   105   53  115 1    
   106   53  116 1    
   107   54   55 am   BACKBONE|DICT|INTERRES
   108   54  117 1    
   109   55   56 2    
   110   55   57 1    
   111   57   58 1    
   112   57   59 1    
   113   57  118 1    
   114   58  119 1    
   115   58  120 1    
   116   58  121 1    
   117   59   60 am   BACKBONE|DICT|INTERRES
   118   59  122 1    
   119   60   61 2    
   120   60   62 1    
   121   62   63 1    
   122   62   64 1    
   123   62  123 1    
   124   63  124 1    
   125   63  125 1    
   126   63  126 1    
   127   64   65 am   BACKBONE|DICT|INTERRES
   128   64  127 1    
   129   65   66 2    
@<TRIPOS>SUBSTRUCTURE
     1 UNK         1 GROUP             0       ****    0 ROOT    
