@<TRIPOS>MOLECULE
3R135
127   129    1
SMALL
USER_CHARGES


@<TRIPOS>ATOM
      1 CA        -80.5103   22.7727  -71.1947 C.3       0 UNK        -0.1998 
      2 C         -81.1431   23.8277  -72.0883 C.2       0 UNK         0.4909 
      3 O         -81.6968   23.4900  -73.1352 O.2       0 UNK        -0.5240 
      4 N         -81.0614   25.1034  -71.6860 N.am      1 UNK        -0.4739 
      5 CA        -81.5479   26.2709  -72.4315 C.3       1 UNK         0.0864 
      6 C6        -81.4183   27.6167  -71.6443 C.3       11 UNK        -0.0881 
      7 S7        -80.2777   27.6726  -70.2056 S.3       11 UNK        -0.2682 
      8 C8        -78.6240   27.4166  -70.9243 C.3       11 UNK         0.0289 
      9 C9        -77.9967   28.6835  -71.4880 C.ar      11 UNK        -0.0687 
     10 C10       -78.3818   29.1644  -72.7400 C.ar      11 UNK        -0.0823 
     11 C11       -77.7560   30.2785  -73.3037 C.ar      11 UNK        -0.0830 
     12 C12       -76.7261   30.9134  -72.6025 C.ar      11 UNK        -0.1021 
     13 C13       -76.3349   30.4521  -71.3403 C.ar      11 UNK        -0.0753 
     14 C14       -76.9851   29.3435  -70.7848 C.ar      11 UNK        -0.0933 
     15 C15       -75.2321   31.1737  -70.5730 C.3       11 UNK         0.0166 
     16 S16       -73.9650   30.0329  -69.9168 S.3       11 UNK        -0.2615 
     17 C17       -72.4017   30.8295  -70.4343 C.3       11 UNK        -0.0865 
     18 CA        -71.6285   30.0433  -71.5317 C.3       10 UNK         0.0862 
     19 C         -70.9693   28.7377  -71.0109 C.2       10 UNK         0.5551 
     20 N         -70.0308   28.8455  -70.0799 N.am      10 UNK        -0.7319 
     21 O         -71.2886   27.6313  -71.4427 O.2       10 UNK        -0.5018 
     22 N         -72.4328   29.7892  -72.7313 N.am      10 UNK        -0.4509 
     23 C         -72.7695   30.6898  -73.6567 C.2       10 UNK         0.4899 
     24 O         -72.4769   31.8844  -73.5821 O.2       10 UNK        -0.4839 
     25 CA        -73.5225   30.1519  -74.8888 C.3       9 UNK         0.0222 
     26 CB        -73.8181   31.2500  -75.9274 C.3       9 UNK        -0.1966 
     27 N         -72.7635   29.0787  -75.5378 N.am      9 UNK        -0.4218 
     28 C         -72.8030   27.7888  -75.1842 C.2       9 UNK         0.5020 
     29 O         -73.5070   27.3533  -74.2725 O.2       9 UNK        -0.5274 
     30 CA        -71.8562   26.8407  -75.9252 C.3       8 UNK         0.0270 
     31 CB        -70.6950   26.4102  -75.0074 C.3       8 UNK        -0.1976 
     32 N         -72.6056   25.6774  -76.3953 N.am      8 UNK        -0.4313 
     33 C         -72.2006   24.8500  -77.3681 C.2       8 UNK         0.5041 
     34 O         -71.1132   24.9443  -77.9399 O.2       8 UNK        -0.5577 
     35 CA        -73.1802   23.7513  -77.8076 C.3       7 UNK         0.0284 
     36 CB        -73.2959   22.6389  -76.7510 C.3       7 UNK        -0.1958 
     37 N         -74.4966   24.3215  -78.0946 N.am      7 UNK        -0.4454 
     38 C         -74.8390   24.8662  -79.2714 C.2       7 UNK         0.5089 
     39 O         -74.1199   24.8393  -80.2710 O.2       7 UNK        -0.5125 
     40 CA        -76.2092   25.5661  -79.3651 C.3       6 UNK         0.0408 
     41 CB        -77.2618   24.6073  -79.9431 C.3       6 UNK        -0.1791 
     42 N         -76.6965   26.0983  -78.0917 N.am      6 UNK        -0.4762 
     43 C         -76.1038   27.0664  -77.3762 C.2       6 UNK         0.5007 
     44 O         -75.0977   27.6727  -77.7443 O.2       6 UNK        -0.5032 
     45 CA        -76.7260   27.3699  -75.9963 C.3       5 UNK         0.0783 
     46 C46       -77.8693   28.4081  -76.1355 C.3       11 UNK        -0.0857 
     47 S47       -77.2589   30.1238  -76.0416 S.3       11 UNK        -0.2512 
     48 C48       -78.2153   30.8129  -74.6535 C.3       11 UNK         0.0225 
     49 N         -77.1663   26.1550  -75.2924 N.am      5 UNK        -0.4615 
     50 C         -76.3974   25.0895  -75.0176 C.2       4 UNK         0.5053 
     51 O         -75.2073   25.0095  -75.3155 O.2       4 UNK        -0.5105 
     52 CA        -77.0805   23.8738  -74.3739 C.3       4 UNK         0.0263 
     53 CB        -77.1817   24.0218  -72.8494 C.3       4 UNK        -0.1981 
     54 N         -78.4064   23.6464  -74.9478 N.am      4 UNK        -0.4224 
     55 C         -78.6150   23.0398  -76.1250 C.2       3 UNK         0.4895 
     56 O         -77.7243   22.5144  -76.7930 O.2       3 UNK        -0.5091 
     57 CA        -80.0548   23.0418  -76.6664 C.3       3 UNK         0.0250 
     58 CB        -80.8232   21.8072  -76.1695 C.3       3 UNK        -0.1996 
     59 N         -80.7941   24.2589  -76.3186 N.am      3 UNK        -0.4254 
     60 C         -80.5117   25.4748  -76.8104 C.2       2 UNK         0.5004 
     61 O         -79.6134   25.6898  -77.6243 O.2       2 UNK        -0.5226 
     62 CA        -81.3373   26.6610  -76.2773 C.3       2 UNK         0.0269 
     63 CB        -82.5811   26.8807  -77.1526 C.3       2 UNK        -0.1926 
     64 N         -81.7461   26.5440  -74.8710 N.am      2 UNK        -0.4687 
     65 C         -80.9134   26.3551  -73.8373 C.2       1 UNK         0.5165 
     66 O         -79.6940   26.2325  -73.9663 O.2       1 UNK        -0.5079 
     67 H67       -79.9462   23.2183  -70.3755 H         1 UNK         0.0900 
     68 H68       -81.2813   22.1308  -70.7698 H         1 UNK         0.0900 
     69 H69       -79.8301   22.1498  -71.7748 H         1 UNK         0.0900 
     70 H70       -80.5960   25.3264  -70.8173 H         1 UNK         0.2959 
     71 H71       -82.6144   26.0907  -72.5852 H         1 UNK         0.1079 
     72 H72       -82.4011   27.8546  -71.2340 H         1 UNK         0.0837 
     73 H73       -81.2017   28.4617  -72.2994 H         1 UNK         0.0837 
     74 H74       -77.9792   26.9995  -70.1493 H         1 UNK         0.0685 
     75 H75       -78.6727   26.6597  -71.7003 H         1 UNK         0.0685 
     76 H76       -79.1698   28.6645  -73.2783 H         1 UNK         0.1434 
     77 H77       -76.2383   31.7751  -73.0376 H         1 UNK         0.1329 
     78 H78       -76.6857   28.9805  -69.8112 H         1 UNK         0.1335 
     79 H79       -74.7677   31.9236  -71.2141 H         1 UNK         0.0680 
     80 H80       -75.6790   31.7180  -69.7403 H         1 UNK         0.0680 
     81 H81       -72.5954   31.8434  -70.7847 H         1 UNK         0.1032 
     82 H82       -71.7803   30.9609  -69.5473 H         1 UNK         0.1032 
     83 H83       -70.7918   30.6670  -71.8530 H         1 UNK         0.0461 
     84 H84       -69.5917   28.0076  -69.7317 H         1 UNK         0.3453 
     85 H85       -69.7454   29.7440  -69.7233 H         1 UNK         0.3453 
     86 H86       -72.6922   28.8171  -72.8704 H         1 UNK         0.2984 
     87 H87       -74.4802   29.7599  -74.5391 H         1 UNK         0.0554 
     88 H88       -74.4443   32.0328  -75.4974 H         1 UNK         0.0847 
     89 H89       -74.3533   30.8468  -76.7874 H         1 UNK         0.0847 
     90 H90       -72.9055   31.7227  -76.2923 H         1 UNK         0.0847 
     91 H91       -72.1295   29.3617  -76.2716 H         1 UNK         0.3141 
     92 H92       -71.4475   27.3619  -76.7937 H         1 UNK         0.0743 
     93 H93       -71.0550   25.8464  -74.1455 H         1 UNK         0.0784 
     94 H94       -69.9723   25.7891  -75.5364 H         1 UNK         0.0784 
     95 H95       -70.1567   27.2784  -74.6249 H         1 UNK         0.0784 
     96 H96       -73.5193   25.5396  -75.9614 H         1 UNK         0.3213 
     97 H97       -72.7847   23.2944  -78.7177 H         1 UNK         0.0855 
     98 H98       -73.6379   23.0144  -75.7870 H         1 UNK         0.0814 
     99 H99       -72.3284   22.1632  -76.5857 H         1 UNK         0.0814 
    100 H100      -73.9893   21.8608  -77.0707 H         1 UNK         0.0814 
    101 H101      -75.1195   24.4396  -77.3040 H         1 UNK         0.3105 
    102 H102      -76.1005   26.4076  -80.0522 H         1 UNK         0.0547 
    103 H103      -76.9458   24.2162  -80.9112 H         1 UNK         0.0837 
    104 H104      -77.4329   23.7539  -79.2859 H         1 UNK         0.0837 
    105 H105      -78.2175   25.1100  -80.0934 H         1 UNK         0.0837 
    106 H106      -77.5701   25.7138  -77.7437 H         1 UNK         0.3020 
    107 H107      -75.9359   27.7952  -75.3739 H         1 UNK         0.1245 
    108 H108      -78.6109   28.2610  -75.3553 H         1 UNK         0.0781 
    109 H109      -78.4220   28.2836  -77.0691 H         1 UNK         0.0781 
    110 H110      -79.2770   30.6111  -74.8051 H         1 UNK         0.0836 
    111 H111      -78.1135   31.8990  -74.6683 H         1 UNK         0.0836 
    112 H112      -78.1265   26.1490  -74.9580 H         1 UNK         0.3022 
    113 H113      -76.4533   23.0027  -74.5771 H         1 UNK         0.0747 
    114 H114      -77.5118   23.0926  -72.3857 H         1 UNK         0.0793 
    115 H115      -76.2140   24.2759  -72.4144 H         1 UNK         0.0793 
    116 H116      -77.8842   24.8017  -72.5673 H         1 UNK         0.0793 
    117 H117      -79.1862   24.1038  -74.4931 H         1 UNK         0.3047 
    118 H118      -79.9942   22.9878  -77.7558 H         1 UNK         0.0822 
    119 H119      -81.8269   21.7666  -76.5929 H         1 UNK         0.0807 
    120 H120      -80.9159   21.7971  -75.0831 H         1 UNK         0.0807 
    121 H121      -80.3121   20.8883  -76.4603 H         1 UNK         0.0807 
    122 H122      -81.5215   24.1719  -75.6211 H         1 UNK         0.2946 
    123 H123      -80.7097   27.5495  -76.3595 H         1 UNK         0.1144 
    124 H124      -83.1164   27.7853  -76.8635 H         1 UNK         0.0793 
    125 H125      -83.2755   26.0422  -77.0864 H         1 UNK         0.0793 
    126 H126      -82.3048   26.9929  -78.2022 H         1 UNK         0.0793 
    127 H127      -82.7368   26.6213  -74.6888 H         1 UNK         0.2896 
@<TRIPOS>BOND
     1    1    2 1    
     2    1   67 1    
     3    1   68 1    
     4    1   69 1    
     5    2    3 2    
     6    2    4 am   BACKBONE|DICT|INTERRES
     7    4    5 1    
     8    4   70 1    
     9    5    6 1    
    10    5   65 1    
    11    5   71 1    
    12    6    7 1    
    13    6   72 1    
    14    6   73 1    
    15    7    8 1    
    16    8    9 1    
    17    8   74 1    
    18    8   75 1    
    19    9   10 ar   
    20    9   14 ar   
    21   10   11 ar   
    22   10   76 1    
    23   11   12 ar   
    24   11   48 1    
    25   12   13 ar   
    26   12   77 1    
    27   13   14 ar   
    28   13   15 1    
    29   14   78 1    
    30   15   16 1    
    31   15   79 1    
    32   15   80 1    
    33   16   17 1    
    34   17   18 1    
    35   17   81 1    
    36   17   82 1    
    37   18   19 1    
    38   18   22 1    
    39   18   83 1    
    40   19   20 am   BACKBONE|DICT|INTERRES
    41   19   21 2    
    42   20   84 1    
    43   20   85 1    
    44   22   23 am   BACKBONE|DICT|INTERRES
    45   22   86 1    
    46   23   24 2    
    47   23   25 1    
    48   25   26 1    
    49   25   27 1    
    50   25   87 1    
    51   26   88 1    
    52   26   89 1    
    53   26   90 1    
    54   27   28 am   BACKBONE|DICT|INTERRES
    55   27   91 1    
    56   28   29 2    
    57   28   30 1    
    58   30   31 1    
    59   30   32 1    
    60   30   92 1    
    61   31   93 1    
    62   31   94 1    
    63   31   95 1    
    64   32   33 am   BACKBONE|DICT|INTERRES
    65   32   96 1    
    66   33   34 2    
    67   33   35 1    
    68   35   36 1    
    69   35   37 1    
    70   35   97 1    
    71   36   98 1    
    72   36   99 1    
    73   36  100 1    
    74   37   38 am   BACKBONE|DICT|INTERRES
    75   37  101 1    
    76   38   39 2    
    77   38   40 1    
    78   40   41 1    
    79   40   42 1    
    80   40  102 1    
    81   41  103 1    
    82   41  104 1    
    83   41  105 1    
    84   42   43 am   BACKBONE|DICT|INTERRES
    85   42  106 1    
    86   43   44 2    
    87   43   45 1    
    88   45   46 1    
    89   45   49 1    
    90   45  107 1    
    91   46   47 1    
    92   46  108 1    
    93   46  109 1    
    94   47   48 1    
    95   48  110 1    
    96   48  111 1    
    97   49   50 am   BACKBONE|DICT|INTERRES
    98   49  112 1    
    99   50   51 2    
   100   50   52 1    
   101   52   53 1    
   102   52   54 1    
   103   52  113 1    
   104   53  114 1    
   105   53  115 1    
   106   53  116 1    
   107   54   55 am   BACKBONE|DICT|INTERRES
   108   54  117 1    
   109   55   56 2    
   110   55   57 1    
   111   57   58 1    
   112   57   59 1    
   113   57  118 1    
   114   58  119 1    
   115   58  120 1    
   116   58  121 1    
   117   59   60 am   BACKBONE|DICT|INTERRES
   118   59  122 1    
   119   60   61 2    
   120   60   62 1    
   121   62   63 1    
   122   62   64 1    
   123   62  123 1    
   124   63  124 1    
   125   63  125 1    
   126   63  126 1    
   127   64   65 am   BACKBONE|DICT|INTERRES
   128   64  127 1    
   129   65   66 2    
@<TRIPOS>SUBSTRUCTURE
     1 UNK         1 GROUP             0       ****    0 ROOT    
