@<TRIPOS>MOLECULE
3R135
127   129    1
SMALL
USER_CHARGES


@<TRIPOS>ATOM
      1 CA        -84.4378   27.8912  -72.4848 C.3       0 UNK        -0.1998 
      2 C         -84.1586   26.5437  -71.8232 C.2       0 UNK         0.4909 
      3 O         -85.0801   25.9476  -71.2689 O.2       0 UNK        -0.5240 
      4 N         -82.9225   26.0219  -71.8321 N.am      1 UNK        -0.4739 
      5 CA        -81.7222   26.5531  -72.4918 C.3       1 UNK         0.0864 
      6 C6        -80.4585   25.7527  -72.0862 C.3       11 UNK        -0.0881 
      7 S7        -79.8990   26.1819  -70.4026 S.3       11 UNK        -0.2682 
      8 C8        -78.0842   26.2742  -70.6094 C.3       11 UNK         0.0289 
      9 C9        -77.5513   27.6262  -71.0889 C.ar      11 UNK        -0.0687 
     10 C10       -78.2176   28.3830  -72.0596 C.ar      11 UNK        -0.0823 
     11 C11       -77.6707   29.5726  -72.5442 C.ar      11 UNK        -0.0830 
     12 C12       -76.4530   30.0277  -72.0349 C.ar      11 UNK        -0.1021 
     13 C13       -75.7810   29.2969  -71.0519 C.ar      11 UNK        -0.0753 
     14 C14       -76.3328   28.0985  -70.5860 C.ar      11 UNK        -0.0933 
     15 C15       -74.4506   29.7968  -70.5112 C.3       11 UNK         0.0166 
     16 S16       -73.0700   28.8911  -71.2694 S.3       11 UNK        -0.2615 
     17 C17       -71.7658   30.1667  -71.3239 C.3       11 UNK        -0.0865 
     18 CA        -71.7046   30.8962  -72.6931 C.3       10 UNK         0.0862 
     19 C         -70.6389   32.0305  -72.6734 C.2       10 UNK         0.5551 
     20 N         -69.6034   31.9877  -73.5029 N.am      10 UNK        -0.7319 
     21 O         -70.7593   32.9705  -71.8915 O.2       10 UNK        -0.5018 
     22 N         -71.5739   29.9444  -73.8087 N.am      10 UNK        -0.4509 
     23 C         -71.9136   30.1778  -75.0803 C.2       10 UNK         0.4899 
     24 O         -72.3396   31.2603  -75.4835 O.2       10 UNK        -0.4839 
     25 CA        -71.7780   29.0121  -76.0792 C.3       9 UNK         0.0222 
     26 CB        -70.3930   29.0120  -76.7549 C.3       9 UNK        -0.1966 
     27 N         -72.1214   27.6879  -75.5362 N.am      9 UNK        -0.4218 
     28 C         -71.4703   26.9521  -74.6220 C.2       9 UNK         0.5020 
     29 O         -70.4358   27.3169  -74.0613 O.2       9 UNK        -0.5274 
     30 CA        -72.0795   25.5940  -74.2355 C.3       8 UNK         0.0270 
     31 CB        -72.9311   25.7282  -72.9643 C.3       8 UNK        -0.1976 
     32 N         -72.8830   24.9868  -75.3000 N.am      8 UNK        -0.4313 
     33 C         -72.3604   24.3539  -76.3606 C.2       8 UNK         0.5041 
     34 O         -71.1503   24.2407  -76.5616 O.2       8 UNK        -0.5577 
     35 CA        -73.3465   23.7278  -77.3618 C.3       7 UNK         0.0284 
     36 CB        -73.9500   22.4326  -76.7960 C.3       7 UNK        -0.1958 
     37 N         -74.4168   24.6444  -77.7560 N.am      7 UNK        -0.4454 
     38 C         -74.2327   25.7472  -78.4958 C.2       7 UNK         0.5089 
     39 O         -73.1462   26.0933  -78.9598 O.2       7 UNK        -0.5125 
     40 CA        -75.4696   26.6256  -78.7473 C.3       6 UNK         0.0408 
     41 CB        -76.2664   26.1156  -79.9585 C.3       6 UNK        -0.1791 
     42 N         -76.3480   26.7121  -77.5793 N.am      6 UNK        -0.4762 
     43 C         -76.0123   27.2989  -76.4206 C.2       6 UNK         0.5007 
     44 O         -74.9225   27.8316  -76.2137 O.2       6 UNK        -0.5032 
     45 CA        -77.0545   27.2231  -75.2886 C.3       5 UNK         0.0783 
     46 C46       -78.2107   28.2317  -75.5116 C.3       11 UNK        -0.0857 
     47 S47       -77.7074   29.9723  -75.2798 S.3       11 UNK        -0.2512 
     48 C48       -78.3870   30.3537  -73.6345 C.3       11 UNK         0.0225 
     49 N         -77.5525   25.8515  -75.1308 N.am      5 UNK        -0.4615 
     50 C         -76.7924   24.8104  -74.7527 C.2       4 UNK         0.5053 
     51 O         -75.6103   24.9149  -74.4334 O.2       4 UNK        -0.5105 
     52 CA        -77.4200   23.4041  -74.7821 C.3       4 UNK         0.0263 
     53 CB        -77.9594   23.0171  -73.3976 C.3       4 UNK        -0.1981 
     54 N         -78.4741   23.2515  -75.7854 N.am      4 UNK        -0.4224 
     55 C         -78.2963   23.3938  -77.1068 C.2       3 UNK         0.4895 
     56 O         -77.1972   23.5831  -77.6297 O.2       3 UNK        -0.5091 
     57 CA        -79.5595   23.3807  -77.9888 C.3       3 UNK         0.0250 
     58 CB        -79.7653   21.9880  -78.6048 C.3       3 UNK        -0.1996 
     59 N         -80.7950   23.7998  -77.3073 N.am      3 UNK        -0.4254 
     60 C         -80.9861   24.9763  -76.6895 C.2       2 UNK         0.5004 
     61 O         -80.1002   25.8253  -76.5844 O.2       2 UNK        -0.5226 
     62 CA        -82.3704   25.2457  -76.0620 C.3       2 UNK         0.0269 
     63 CB        -83.4119   24.1387  -76.3278 C.3       2 UNK        -0.1926 
     64 N         -82.2528   25.4455  -74.6149 N.am      2 UNK        -0.4687 
     65 C         -81.8740   26.5879  -74.0245 C.2       1 UNK         0.5165 
     66 O         -81.6783   27.6450  -74.6229 O.2       1 UNK        -0.5079 
     67 H67       -85.3570   28.3224  -72.0887 H         1 UNK         0.0900 
     68 H68       -84.5647   27.7703  -73.5602 H         1 UNK         0.0900 
     69 H69       -83.6400   28.6098  -72.3030 H         1 UNK         0.0900 
     70 H70       -82.7834   25.1477  -71.3459 H         1 UNK         0.2959 
     71 H71       -81.5858   27.5864  -72.1662 H         1 UNK         0.1079 
     72 H72       -80.6576   24.6803  -72.1186 H         1 UNK         0.0837 
     73 H73       -79.6381   25.9189  -72.7869 H         1 UNK         0.0837 
     74 H74       -77.6391   26.0307  -69.6434 H         1 UNK         0.0685 
     75 H75       -77.7520   25.4962  -71.2981 H         1 UNK         0.0685 
     76 H76       -79.1580   28.0488  -72.4639 H         1 UNK         0.1434 
     77 H77       -76.0228   30.9445  -72.4148 H         1 UNK         0.1329 
     78 H78       -75.7966   27.5239  -69.8429 H         1 UNK         0.1335 
     79 H79       -74.3471   30.8653  -70.7069 H         1 UNK         0.0680 
     80 H80       -74.4136   29.6747  -69.4278 H         1 UNK         0.0680 
     81 H81       -71.9237   30.8763  -70.5092 H         1 UNK         0.1032 
     82 H82       -70.8112   29.6804  -71.1151 H         1 UNK         0.1032 
     83 H83       -72.6628   31.4028  -72.8244 H         1 UNK         0.0461 
     84 H84       -68.9210   32.7292  -73.4844 H         1 UNK         0.3453 
     85 H85       -69.5020   31.2203  -74.1473 H         1 UNK         0.3453 
     86 H86       -71.1918   29.0309  -73.5851 H         1 UNK         0.2984 
     87 H87       -72.5166   29.1936  -76.8616 H         1 UNK         0.0554 
     88 H88       -70.3230   28.2302  -77.5112 H         1 UNK         0.0847 
     89 H89       -69.5857   28.8591  -76.0384 H         1 UNK         0.0847 
     90 H90       -70.2052   29.9636  -77.2539 H         1 UNK         0.0847 
     91 H91       -73.0257   27.3461  -75.8491 H         1 UNK         0.3141 
     92 H92       -71.2509   24.9198  -74.0078 H         1 UNK         0.0743 
     93 H93       -72.3290   26.0914  -72.1308 H         1 UNK         0.0784 
     94 H94       -73.7561   26.4288  -73.1029 H         1 UNK         0.0784 
     95 H95       -73.3532   24.7693  -72.6635 H         1 UNK         0.0784 
     96 H96       -73.8934   25.0049  -75.1707 H         1 UNK         0.3213 
     97 H97       -72.7858   23.4696  -78.2630 H         1 UNK         0.0855 
     98 H98       -74.4772   22.6087  -75.8592 H         1 UNK         0.0814 
     99 H99       -73.1695   21.6980  -76.5940 H         1 UNK         0.0814 
    100 H100      -74.6508   21.9784  -77.4970 H         1 UNK         0.0814 
    101 H101      -75.3643   24.4016  -77.4821 H         1 UNK         0.3105 
    102 H102      -75.1186   27.6346  -78.9741 H         1 UNK         0.0547 
    103 H103      -77.1067   26.7715  -80.1864 H         1 UNK         0.0837 
    104 H104      -75.6369   26.0767  -80.8485 H         1 UNK         0.0837 
    105 H105      -76.6584   25.1114  -79.7949 H         1 UNK         0.0837 
    106 H106      -77.2458   26.2534  -77.6460 H         1 UNK         0.3020 
    107 H107      -76.5418   27.4858  -74.3597 H         1 UNK         0.1245 
    108 H108      -79.0328   28.0130  -74.8313 H         1 UNK         0.0781 
    109 H109      -78.6352   28.1267  -76.5118 H         1 UNK         0.0781 
    110 H110      -78.2822   31.4236  -73.4481 H         1 UNK         0.0836 
    111 H111      -79.4587   30.1474  -73.6231 H         1 UNK         0.0836 
    112 H112      -78.4990   25.6850  -75.4599 H         1 UNK         0.3022 
    113 H113      -76.6269   22.7000  -75.0369 H         1 UNK         0.0747 
    114 H114      -78.2838   21.9765  -73.3757 H         1 UNK         0.0793 
    115 H115      -78.8043   23.6371  -73.1060 H         1 UNK         0.0793 
    116 H116      -77.1901   23.1306  -72.6322 H         1 UNK         0.0793 
    117 H117      -79.4109   23.0898  -75.4469 H         1 UNK         0.3047 
    118 H118      -79.3835   24.0897  -78.8005 H         1 UNK         0.0822 
    119 H119      -78.8713   21.6610  -79.1383 H         1 UNK         0.0807 
    120 H120      -80.5852   21.9878  -79.3233 H         1 UNK         0.0807 
    121 H121      -79.9832   21.2376  -77.8438 H         1 UNK         0.0807 
    122 H122      -81.5689   23.1519  -77.3439 H         1 UNK         0.2946 
    123 H123      -82.7405   26.1670  -76.5181 H         1 UNK         0.1144 
    124 H124      -83.5633   23.9830  -77.3970 H         1 UNK         0.0793 
    125 H125      -84.3822   24.4121  -75.9121 H         1 UNK         0.0793 
    126 H126      -83.1245   23.1845  -75.8841 H         1 UNK         0.0793 
    127 H127      -82.4154   24.6367  -74.0323 H         1 UNK         0.2896 
@<TRIPOS>BOND
     1    1    2 1    
     2    1   67 1    
     3    1   68 1    
     4    1   69 1    
     5    2    3 2    
     6    2    4 am   BACKBONE|DICT|INTERRES
     7    4    5 1    
     8    4   70 1    
     9    5    6 1    
    10    5   65 1    
    11    5   71 1    
    12    6    7 1    
    13    6   72 1    
    14    6   73 1    
    15    7    8 1    
    16    8    9 1    
    17    8   74 1    
    18    8   75 1    
    19    9   10 ar   
    20    9   14 ar   
    21   10   11 ar   
    22   10   76 1    
    23   11   12 ar   
    24   11   48 1    
    25   12   13 ar   
    26   12   77 1    
    27   13   14 ar   
    28   13   15 1    
    29   14   78 1    
    30   15   16 1    
    31   15   79 1    
    32   15   80 1    
    33   16   17 1    
    34   17   18 1    
    35   17   81 1    
    36   17   82 1    
    37   18   19 1    
    38   18   22 1    
    39   18   83 1    
    40   19   20 am   BACKBONE|DICT|INTERRES
    41   19   21 2    
    42   20   84 1    
    43   20   85 1    
    44   22   23 am   BACKBONE|DICT|INTERRES
    45   22   86 1    
    46   23   24 2    
    47   23   25 1    
    48   25   26 1    
    49   25   27 1    
    50   25   87 1    
    51   26   88 1    
    52   26   89 1    
    53   26   90 1    
    54   27   28 am   BACKBONE|DICT|INTERRES
    55   27   91 1    
    56   28   29 2    
    57   28   30 1    
    58   30   31 1    
    59   30   32 1    
    60   30   92 1    
    61   31   93 1    
    62   31   94 1    
    63   31   95 1    
    64   32   33 am   BACKBONE|DICT|INTERRES
    65   32   96 1    
    66   33   34 2    
    67   33   35 1    
    68   35   36 1    
    69   35   37 1    
    70   35   97 1    
    71   36   98 1    
    72   36   99 1    
    73   36  100 1    
    74   37   38 am   BACKBONE|DICT|INTERRES
    75   37  101 1    
    76   38   39 2    
    77   38   40 1    
    78   40   41 1    
    79   40   42 1    
    80   40  102 1    
    81   41  103 1    
    82   41  104 1    
    83   41  105 1    
    84   42   43 am   BACKBONE|DICT|INTERRES
    85   42  106 1    
    86   43   44 2    
    87   43   45 1    
    88   45   46 1    
    89   45   49 1    
    90   45  107 1    
    91   46   47 1    
    92   46  108 1    
    93   46  109 1    
    94   47   48 1    
    95   48  110 1    
    96   48  111 1    
    97   49   50 am   BACKBONE|DICT|INTERRES
    98   49  112 1    
    99   50   51 2    
   100   50   52 1    
   101   52   53 1    
   102   52   54 1    
   103   52  113 1    
   104   53  114 1    
   105   53  115 1    
   106   53  116 1    
   107   54   55 am   BACKBONE|DICT|INTERRES
   108   54  117 1    
   109   55   56 2    
   110   55   57 1    
   111   57   58 1    
   112   57   59 1    
   113   57  118 1    
   114   58  119 1    
   115   58  120 1    
   116   58  121 1    
   117   59   60 am   BACKBONE|DICT|INTERRES
   118   59  122 1    
   119   60   61 2    
   120   60   62 1    
   121   62   63 1    
   122   62   64 1    
   123   62  123 1    
   124   63  124 1    
   125   63  125 1    
   126   63  126 1    
   127   64   65 am   BACKBONE|DICT|INTERRES
   128   64  127 1    
   129   65   66 2    
@<TRIPOS>SUBSTRUCTURE
     1 UNK         1 GROUP             0       ****    0 ROOT    
