@<TRIPOS>MOLECULE
3R135
127   129    1
SMALL
USER_CHARGES


@<TRIPOS>ATOM
      1 CA        -84.0284   29.8528  -74.4668 C.3       0 UNK        -0.1998 
      2 C         -82.6174   29.5578  -73.9827 C.2       0 UNK         0.4909 
      3 O         -81.6842   30.2821  -74.3315 O.2       0 UNK        -0.5240 
      4 N         -82.4469   28.4923  -73.1899 N.am      1 UNK        -0.4739 
      5 CA        -81.1732   28.0521  -72.6043 C.3       1 UNK         0.0864 
      6 C6        -81.4048   27.2555  -71.2916 C.3       11 UNK        -0.0881 
      7 S7        -81.8520   28.3908  -69.9300 S.3       11 UNK        -0.2682 
      8 C8        -80.3509   28.4145  -68.8831 C.3       11 UNK         0.0289 
      9 C9        -79.0543   28.4651  -69.6840 C.ar      11 UNK        -0.0687 
     10 C10       -78.1778   27.3758  -69.6572 C.ar      11 UNK        -0.0823 
     11 C11       -77.0213   27.3755  -70.4398 C.ar      11 UNK        -0.0830 
     12 C12       -76.7428   28.4793  -71.2501 C.ar      11 UNK        -0.1021 
     13 C13       -77.6088   29.5775  -71.2903 C.ar      11 UNK        -0.0753 
     14 C14       -78.7524   29.5718  -70.4846 C.ar      11 UNK        -0.0933 
     15 C15       -77.3712   30.7347  -72.2567 C.3       11 UNK         0.0166 
     16 S16       -75.6121   31.1909  -72.4412 S.3       11 UNK        -0.2615 
     17 C17       -75.4154   31.2134  -74.2593 C.3       11 UNK        -0.0865 
     18 CA        -74.8045   29.9028  -74.8469 C.3       10 UNK         0.0862 
     19 C         -74.7394   29.9306  -76.4059 C.2       10 UNK         0.5551 
     20 N         -73.7075   29.3908  -77.0444 N.am      10 UNK        -0.7319 
     21 O         -75.6555   30.4302  -77.0535 O.2       10 UNK        -0.5018 
     22 N         -73.5450   29.4864  -74.2032 N.am      10 UNK        -0.4509 
     23 C         -72.4131   30.2019  -74.1399 C.2       10 UNK         0.4899 
     24 O         -72.2971   31.3579  -74.5477 O.2       10 UNK        -0.4839 
     25 CA        -71.1811   29.5058  -73.5319 C.3       9 UNK         0.0222 
     26 CB        -71.0830   29.8220  -72.0302 C.3       9 UNK        -0.1966 
     27 N         -71.1330   28.0505  -73.7235 N.am      9 UNK        -0.4218 
     28 C         -71.1411   27.4118  -74.9030 C.2       9 UNK         0.5020 
     29 O         -71.2412   27.9894  -75.9885 O.2       9 UNK        -0.5274 
     30 CA        -71.0076   25.8785  -74.8653 C.3       8 UNK         0.0270 
     31 CB        -71.5401   25.2462  -73.5617 C.3       8 UNK        -0.1976 
     32 N         -71.7387   25.3087  -75.9938 N.am      8 UNK        -0.4313 
     33 C         -71.2255   24.5434  -76.9654 C.2       8 UNK         0.5041 
     34 O         -70.0408   24.2075  -77.0119 O.2       8 UNK        -0.5577 
     35 CA        -72.1838   24.0355  -78.0636 C.3       7 UNK         0.0284 
     36 CB        -72.2386   22.4981  -78.0672 C.3       7 UNK        -0.1958 
     37 N         -73.5479   24.5472  -77.9159 N.am      7 UNK        -0.4454 
     38 C         -73.9807   25.7318  -78.3714 C.2       7 UNK         0.5089 
     39 O         -73.3045   26.4849  -79.0713 O.2       7 UNK        -0.5125 
     40 CA        -75.4009   26.1609  -77.9505 C.3       6 UNK         0.0408 
     41 CB        -76.3982   25.8588  -79.0774 C.3       6 UNK        -0.1791 
     42 N         -75.8546   25.5315  -76.7024 N.am      6 UNK        -0.4762 
     43 C         -75.2638   25.7136  -75.5088 C.2       6 UNK         0.5007 
     44 O         -74.3396   26.5073  -75.3367 O.2       6 UNK        -0.5032 
     45 CA        -75.7239   24.8622  -74.3062 C.3       5 UNK         0.0783 
     46 C46       -76.3040   25.7765  -73.2053 C.3       11 UNK        -0.0857 
     47 S47       -76.6082   24.9067  -71.6334 S.3       11 UNK        -0.2512 
     48 C48       -76.0885   26.1716  -70.4273 C.3       11 UNK         0.0225 
     49 N         -76.6366   23.7731  -74.6658 N.am      5 UNK        -0.4615 
     50 C         -76.3045   22.6908  -75.3840 C.2       4 UNK         0.5053 
     51 O         -75.1747   22.4907  -75.8311 O.2       4 UNK        -0.5105 
     52 CA        -77.4393   21.6985  -75.7019 C.3       4 UNK         0.0263 
     53 CB        -77.5215   20.6122  -74.6193 C.3       4 UNK        -0.1981 
     54 N         -78.7468   22.3531  -75.8403 N.am      4 UNK        -0.4224 
     55 C         -79.0442   23.2500  -76.7915 C.2       3 UNK         0.4895 
     56 O         -78.2710   23.5498  -77.7002 O.2       3 UNK        -0.5091 
     57 CA        -80.3773   24.0034  -76.6648 C.3       3 UNK         0.0250 
     58 CB        -81.4344   23.2721  -75.8132 C.3       3 UNK        -0.1996 
     59 N         -80.0810   25.2962  -76.0553 N.am      3 UNK        -0.4254 
     60 C         -79.7442   26.4133  -76.7081 C.2       2 UNK         0.5004 
     61 O         -79.8839   26.5643  -77.9227 O.2       2 UNK        -0.5226 
     62 CA        -79.1292   27.5392  -75.8499 C.3       2 UNK         0.0269 
     63 CB        -78.7208   28.7682  -76.6819 C.3       2 UNK        -0.1926 
     64 N         -79.9872   27.9824  -74.7476 N.am      2 UNK        -0.4687 
     65 C         -80.2955   27.3056  -73.6329 C.2       1 UNK         0.5165 
     66 O         -79.9207   26.1507  -73.4187 O.2       1 UNK        -0.5079 
     67 H67       -84.0674   29.8136  -75.5549 H         1 UNK         0.0900 
     68 H68       -84.3314   30.8503  -74.1506 H         1 UNK         0.0900 
     69 H69       -84.7519   29.1386  -74.0745 H         1 UNK         0.0900 
     70 H70       -83.2486   27.9257  -72.9523 H         1 UNK         0.2959 
     71 H71       -80.5989   28.9448  -72.3527 H         1 UNK         0.1079 
     72 H72       -82.2005   26.5203  -71.4209 H         1 UNK         0.0837 
     73 H73       -80.5262   26.6786  -71.0012 H         1 UNK         0.0837 
     74 H74       -80.3968   29.2785  -68.2190 H         1 UNK         0.0685 
     75 H75       -80.3681   27.5346  -68.2382 H         1 UNK         0.0685 
     76 H76       -78.4077   26.5125  -69.0476 H         1 UNK         0.1434 
     77 H77       -75.8571   28.4772  -71.8680 H         1 UNK         0.1329 
     78 H78       -79.4401   30.4060  -70.5173 H         1 UNK         0.1335 
     79 H79       -77.9184   31.6210  -71.9325 H         1 UNK         0.0680 
     80 H80       -77.7928   30.4477  -73.2204 H         1 UNK         0.0680 
     81 H81       -74.7904   32.0692  -74.5166 H         1 UNK         0.1032 
     82 H82       -76.3824   31.4242  -74.7186 H         1 UNK         0.1032 
     83 H83       -75.5085   29.1006  -74.6217 H         1 UNK         0.0461 
     84 H84       -72.9510   28.9474  -76.5348 H         1 UNK         0.3453 
     85 H85       -73.6875   29.4055  -78.0508 H         1 UNK         0.3453 
     86 H86       -73.5166   28.5245  -73.8985 H         1 UNK         0.2984 
     87 H87       -70.3001   29.9224  -74.0247 H         1 UNK         0.0554 
     88 H88       -70.1613   29.4316  -71.5983 H         1 UNK         0.0847 
     89 H89       -71.9222   29.4026  -71.4733 H         1 UNK         0.0847 
     90 H90       -71.0865   30.8994  -71.8577 H         1 UNK         0.0847 
     91 H91       -71.0510   27.4919  -72.8863 H         1 UNK         0.3141 
     92 H92       -69.9430   25.6536  -74.9496 H         1 UNK         0.0743 
     93 H93       -70.9243   25.5170  -72.7036 H         1 UNK         0.0784 
     94 H94       -72.5648   25.5526  -73.3489 H         1 UNK         0.0784 
     95 H95       -71.5285   24.1577  -73.6224 H         1 UNK         0.0784 
     96 H96       -72.6979   25.6283  -76.0766 H         1 UNK         0.3213 
     97 H97       -71.7797   24.3646  -79.0231 H         1 UNK         0.0855 
     98 H98       -71.2476   22.0695  -78.2228 H         1 UNK         0.0814 
     99 H99       -72.8791   22.1257  -78.8664 H         1 UNK         0.0814 
    100 H100      -72.6185   22.1067  -77.1229 H         1 UNK         0.0814 
    101 H101      -74.1779   23.9889  -77.3524 H         1 UNK         0.3105 
    102 H102      -75.3884   27.2399  -77.7917 H         1 UNK         0.0547 
    103 H103      -76.1063   26.3604  -80.0007 H         1 UNK         0.0837 
    104 H104      -76.4549   24.7913  -79.2915 H         1 UNK         0.0837 
    105 H105      -77.4002   26.2039  -78.8274 H         1 UNK         0.0837 
    106 H106      -76.5957   24.8464  -76.7871 H         1 UNK         0.3020 
    107 H107      -74.8169   24.3998  -73.9096 H         1 UNK         0.1245 
    108 H108      -77.2352   26.2429  -73.5246 H         1 UNK         0.0781 
    109 H109      -75.6048   26.5894  -73.0109 H         1 UNK         0.0781 
    110 H110      -75.0616   26.4787  -70.6321 H         1 UNK         0.0836 
    111 H111      -76.0761   25.7248  -69.4321 H         1 UNK         0.0836 
    112 H112      -77.5790   23.8492  -74.3129 H         1 UNK         0.3022 
    113 H113      -77.2002   21.2193  -76.6531 H         1 UNK         0.0747 
    114 H114      -78.2705   19.8603  -74.8673 H         1 UNK         0.0793 
    115 H115      -76.5670   20.0944  -74.5149 H         1 UNK         0.0793 
    116 H116      -77.7736   21.0297  -73.6442 H         1 UNK         0.0793 
    117 H117      -79.4356   22.1564  -75.1290 H         1 UNK         0.3047 
    118 H118      -80.7789   24.1414  -77.6710 H         1 UNK         0.0822 
    119 H119      -82.3850   23.8047  -75.8402 H         1 UNK         0.0807 
    120 H120      -81.1422   23.1867  -74.7661 H         1 UNK         0.0807 
    121 H121      -81.6222   22.2673  -76.1941 H         1 UNK         0.0807 
    122 H122      -79.9843   25.3154  -75.0422 H         1 UNK         0.2946 
    123 H123      -78.2150   27.1292  -75.4197 H         1 UNK         0.1144 
    124 H124      -78.2202   29.5160  -76.0664 H         1 UNK         0.0793 
    125 H125      -79.5836   29.2425  -77.1508 H         1 UNK         0.0793 
    126 H126      -78.0253   28.4918  -77.4758 H         1 UNK         0.0793 
    127 H127      -80.3998   28.9068  -74.8411 H         1 UNK         0.2896 
@<TRIPOS>BOND
     1    1    2 1    
     2    1   67 1    
     3    1   68 1    
     4    1   69 1    
     5    2    3 2    
     6    2    4 am   BACKBONE|DICT|INTERRES
     7    4    5 1    
     8    4   70 1    
     9    5    6 1    
    10    5   65 1    
    11    5   71 1    
    12    6    7 1    
    13    6   72 1    
    14    6   73 1    
    15    7    8 1    
    16    8    9 1    
    17    8   74 1    
    18    8   75 1    
    19    9   10 ar   
    20    9   14 ar   
    21   10   11 ar   
    22   10   76 1    
    23   11   12 ar   
    24   11   48 1    
    25   12   13 ar   
    26   12   77 1    
    27   13   14 ar   
    28   13   15 1    
    29   14   78 1    
    30   15   16 1    
    31   15   79 1    
    32   15   80 1    
    33   16   17 1    
    34   17   18 1    
    35   17   81 1    
    36   17   82 1    
    37   18   19 1    
    38   18   22 1    
    39   18   83 1    
    40   19   20 am   BACKBONE|DICT|INTERRES
    41   19   21 2    
    42   20   84 1    
    43   20   85 1    
    44   22   23 am   BACKBONE|DICT|INTERRES
    45   22   86 1    
    46   23   24 2    
    47   23   25 1    
    48   25   26 1    
    49   25   27 1    
    50   25   87 1    
    51   26   88 1    
    52   26   89 1    
    53   26   90 1    
    54   27   28 am   BACKBONE|DICT|INTERRES
    55   27   91 1    
    56   28   29 2    
    57   28   30 1    
    58   30   31 1    
    59   30   32 1    
    60   30   92 1    
    61   31   93 1    
    62   31   94 1    
    63   31   95 1    
    64   32   33 am   BACKBONE|DICT|INTERRES
    65   32   96 1    
    66   33   34 2    
    67   33   35 1    
    68   35   36 1    
    69   35   37 1    
    70   35   97 1    
    71   36   98 1    
    72   36   99 1    
    73   36  100 1    
    74   37   38 am   BACKBONE|DICT|INTERRES
    75   37  101 1    
    76   38   39 2    
    77   38   40 1    
    78   40   41 1    
    79   40   42 1    
    80   40  102 1    
    81   41  103 1    
    82   41  104 1    
    83   41  105 1    
    84   42   43 am   BACKBONE|DICT|INTERRES
    85   42  106 1    
    86   43   44 2    
    87   43   45 1    
    88   45   46 1    
    89   45   49 1    
    90   45  107 1    
    91   46   47 1    
    92   46  108 1    
    93   46  109 1    
    94   47   48 1    
    95   48  110 1    
    96   48  111 1    
    97   49   50 am   BACKBONE|DICT|INTERRES
    98   49  112 1    
    99   50   51 2    
   100   50   52 1    
   101   52   53 1    
   102   52   54 1    
   103   52  113 1    
   104   53  114 1    
   105   53  115 1    
   106   53  116 1    
   107   54   55 am   BACKBONE|DICT|INTERRES
   108   54  117 1    
   109   55   56 2    
   110   55   57 1    
   111   57   58 1    
   112   57   59 1    
   113   57  118 1    
   114   58  119 1    
   115   58  120 1    
   116   58  121 1    
   117   59   60 am   BACKBONE|DICT|INTERRES
   118   59  122 1    
   119   60   61 2    
   120   60   62 1    
   121   62   63 1    
   122   62   64 1    
   123   62  123 1    
   124   63  124 1    
   125   63  125 1    
   126   63  126 1    
   127   64   65 am   BACKBONE|DICT|INTERRES
   128   64  127 1    
   129   65   66 2    
@<TRIPOS>SUBSTRUCTURE
     1 UNK         1 GROUP             0       ****    0 ROOT    
