@<TRIPOS>MOLECULE
3R135
127   129    1
SMALL
USER_CHARGES


@<TRIPOS>ATOM
      1 CA        -85.4056   25.7433  -73.2994 C.3       0 UNK        -0.1998 
      2 C         -84.6557   26.9786  -73.7755 C.2       0 UNK         0.4909 
      3 O         -85.2703   27.9028  -74.3094 O.2       0 UNK        -0.5240 
      4 N         -83.3334   26.9982  -73.5919 N.am      1 UNK        -0.4739 
      5 CA        -82.4331   28.0789  -73.9898 C.3       1 UNK         0.0864 
      6 C6        -82.4694   29.3021  -73.0313 C.3       11 UNK        -0.0881 
      7 S7        -82.2736   28.9006  -71.2583 S.3       11 UNK        -0.2682 
      8 C8        -80.7666   29.8276  -70.8040 C.3       11 UNK         0.0289 
      9 C9        -79.4531   29.1267  -71.1490 C.ar      11 UNK        -0.0687 
     10 C10       -79.3093   27.7408  -71.0200 C.ar      11 UNK        -0.0823 
     11 C11       -78.0830   27.1139  -71.2603 C.ar      11 UNK        -0.0830 
     12 C12       -76.9801   27.9003  -71.6146 C.ar      11 UNK        -0.1021 
     13 C13       -77.1042   29.2854  -71.7557 C.ar      11 UNK        -0.0753 
     14 C14       -78.3447   29.8897  -71.5281 C.ar      11 UNK        -0.0933 
     15 C15       -75.8936   30.1372  -72.1160 C.3       11 UNK         0.0166 
     16 S16       -75.2966   29.8127  -73.8054 S.3       11 UNK        -0.2615 
     17 C17       -73.8847   28.6955  -73.4940 C.3       11 UNK        -0.0865 
     18 CA        -72.5386   29.4644  -73.4365 C.3       10 UNK         0.0862 
     19 C         -71.3754   28.5515  -72.9466 C.2       10 UNK         0.5551 
     20 N         -70.2787   28.3969  -73.6799 N.am      10 UNK        -0.7319 
     21 O         -71.4666   27.9777  -71.8645 O.2       10 UNK        -0.5018 
     22 N         -72.2621   30.1659  -74.6987 N.am      10 UNK        -0.4509 
     23 C         -71.5166   31.2733  -74.8100 C.2       10 UNK         0.4899 
     24 O         -71.0571   31.8851  -73.8441 O.2       10 UNK        -0.4839 
     25 CA        -71.2301   31.7770  -76.2424 C.3       9 UNK         0.0222 
     26 CB        -69.9453   32.6293  -76.3232 C.3       9 UNK        -0.1966 
     27 N         -71.2009   30.7068  -77.2509 N.am      9 UNK        -0.4218 
     28 C         -70.4164   29.6195  -77.2444 C.2       9 UNK         0.5020 
     29 O         -69.5664   29.3776  -76.3836 O.2       9 UNK        -0.5274 
     30 CA        -70.6471   28.6067  -78.3753 C.3       8 UNK         0.0270 
     31 CB        -69.4492   28.5813  -79.3388 C.3       8 UNK        -0.1976 
     32 N         -70.8716   27.2640  -77.8365 N.am      8 UNK        -0.4313 
     33 C         -71.9267   26.9086  -77.0926 C.2       8 UNK         0.5041 
     34 O         -72.8490   27.6719  -76.7903 O.2       8 UNK        -0.5577 
     35 CA        -71.9497   25.4621  -76.5901 C.3       7 UNK         0.0284 
     36 CB        -71.4369   25.3774  -75.1435 C.3       7 UNK        -0.1958 
     37 N         -73.3242   24.9723  -76.6379 N.am      7 UNK        -0.4454 
     38 C         -73.7233   23.8502  -77.2462 C.2       7 UNK         0.5089 
     39 O         -72.9592   23.0713  -77.8204 O.2       7 UNK        -0.5125 
     40 CA        -75.2352   23.5555  -77.1931 C.3       6 UNK         0.0408 
     41 CB        -75.5979   22.1597  -77.7422 C.3       6 UNK        -0.1791 
     42 N         -75.8107   23.7488  -75.8569 N.am      6 UNK        -0.4762 
     43 C         -75.4711   23.1211  -74.7185 C.2       6 UNK         0.5007 
     44 O         -74.5677   22.2888  -74.6313 O.2       6 UNK        -0.5032 
     45 CA        -76.3094   23.4501  -73.4696 C.3       5 UNK         0.0783 
     46 C46       -75.8410   24.7637  -72.7942 C.3       11 UNK        -0.0857 
     47 S47       -76.3554   24.8414  -71.0441 S.3       11 UNK        -0.2512 
     48 C48       -78.0212   25.5915  -71.1286 C.3       11 UNK         0.0225 
     49 N         -77.7258   23.5103  -73.8340 N.am      5 UNK        -0.4615 
     50 C         -78.5881   22.4895  -73.7569 C.2       4 UNK         0.5053 
     51 O         -78.3000   21.3812  -73.3048 O.2       4 UNK        -0.5105 
     52 CA        -80.0188   22.7434  -74.2687 C.3       4 UNK         0.0263 
     53 CB        -80.9609   23.0774  -73.1004 C.3       4 UNK        -0.1981 
     54 N         -80.0778   23.8158  -75.2672 N.am      4 UNK        -0.4224 
     55 C         -79.6647   23.6738  -76.5373 C.2       3 UNK         0.4895 
     56 O         -79.2988   22.5999  -77.0148 O.2       3 UNK        -0.5091 
     57 CA        -79.6296   24.9282  -77.4326 C.3       3 UNK         0.0250 
     58 CB        -80.8512   24.9534  -78.3654 C.3       3 UNK        -0.1996 
     59 N         -79.5603   26.1974  -76.7031 N.am      3 UNK        -0.4254 
     60 C         -78.5703   26.5729  -75.8808 C.2       2 UNK         0.5004 
     61 O         -77.5717   25.8897  -75.6594 O.2       2 UNK        -0.5226 
     62 CA        -78.7531   27.9038  -75.1329 C.3       2 UNK         0.0269 
     63 CB        -78.0928   29.0464  -75.9182 C.3       2 UNK        -0.1926 
     64 N         -80.1512   28.2559  -74.8528 N.am      2 UNK        -0.4687 
     65 C         -81.0239   27.4952  -74.1754 C.2       1 UNK         0.5165 
     66 O         -80.7615   26.3672  -73.7446 O.2       1 UNK        -0.5079 
     67 H67       -86.1484   26.0208  -72.5521 H         1 UNK         0.0900 
     68 H68       -85.9215   25.2716  -74.1352 H         1 UNK         0.0900 
     69 H69       -84.7360   25.0071  -72.8547 H         1 UNK         0.0900 
     70 H70       -82.8504   26.2073  -73.1833 H         1 UNK         0.2959 
     71 H71       -82.7481   28.4175  -74.9797 H         1 UNK         0.1079 
     72 H72       -83.4326   29.8033  -73.1379 H         1 UNK         0.0837 
     73 H73       -81.7293   30.0473  -73.3275 H         1 UNK         0.0837 
     74 H74       -80.7830   29.9874  -69.7253 H         1 UNK         0.0685 
     75 H75       -80.8079   30.8195  -71.2568 H         1 UNK         0.0685 
     76 H76       -80.1590   27.1403  -70.7259 H         1 UNK         0.1434 
     77 H77       -76.0194   27.4431  -71.7869 H         1 UNK         0.1329 
     78 H78       -78.4408   30.9632  -71.6177 H         1 UNK         0.1335 
     79 H79       -75.0961   29.9693  -71.3908 H         1 UNK         0.0680 
     80 H80       -76.1421   31.1972  -72.0456 H         1 UNK         0.0680 
     81 H81       -74.0534   28.1480  -72.5664 H         1 UNK         0.1032 
     82 H82       -73.8602   27.9431  -74.2839 H         1 UNK         0.1032 
     83 H83       -72.6458   30.2218  -72.6576 H         1 UNK         0.0461 
     84 H84       -70.1693   28.8623  -74.5750 H         1 UNK         0.3453 
     85 H85       -69.5373   27.8122  -73.3302 H         1 UNK         0.3453 
     86 H86       -72.5832   29.7006  -75.5378 H         1 UNK         0.2984 
     87 H87       -72.0700   32.4209  -76.5067 H         1 UNK         0.0554 
     88 H88       -70.0135   33.5060  -75.6780 H         1 UNK         0.0847 
     89 H89       -69.7702   32.9897  -77.3368 H         1 UNK         0.0847 
     90 H90       -69.0659   32.0645  -76.0114 H         1 UNK         0.0847 
     91 H91       -71.8846   30.7918  -77.9912 H         1 UNK         0.3141 
     92 H92       -71.5366   28.8937  -78.9406 H         1 UNK         0.0743 
     93 H93       -68.5304   28.2796  -78.8338 H         1 UNK         0.0784 
     94 H94       -69.6193   27.8937  -80.1676 H         1 UNK         0.0784 
     95 H95       -69.2744   29.5686  -79.7688 H         1 UNK         0.0784 
     96 H96       -70.1394   26.5878  -77.9990 H         1 UNK         0.3213 
     97 H97       -71.3022   24.8587  -77.2302 H         1 UNK         0.0855 
     98 H98       -72.0548   25.9619  -74.4612 H         1 UNK         0.0814 
     99 H99       -70.4162   25.7542  -75.0665 H         1 UNK         0.0814 
    100 H100      -71.4313   24.3472  -74.7870 H         1 UNK         0.0814 
    101 H101      -74.0217   25.6001  -76.2607 H         1 UNK         0.3105 
    102 H102      -75.7130   24.2948  -77.8376 H         1 UNK         0.0547 
    103 H103      -76.6746   21.9925  -77.7196 H         1 UNK         0.0837 
    104 H104      -75.1231   21.3627  -77.1693 H         1 UNK         0.0837 
    105 H105      -75.2761   22.0512  -78.7785 H         1 UNK         0.0837 
    106 H106      -76.5272   24.4727  -75.7997 H         1 UNK         0.3020 
    107 H107      -76.1487   22.6283  -72.7673 H         1 UNK         0.1245 
    108 H108      -76.2017   25.6400  -73.3351 H         1 UNK         0.0781 
    109 H109      -74.7512   24.8344  -72.7997 H         1 UNK         0.0781 
    110 H110      -78.5464   25.3029  -70.2168 H         1 UNK         0.0836 
    111 H111      -78.5852   25.1517  -71.9493 H         1 UNK         0.0836 
    112 H112      -78.0315   24.3713  -74.2691 H         1 UNK         0.3022 
    113 H113      -80.3718   21.8194  -74.7319 H         1 UNK         0.0747 
    114 H114      -81.9835   23.2297  -73.4458 H         1 UNK         0.0793 
    115 H115      -80.9820   22.2640  -72.3738 H         1 UNK         0.0793 
    116 H116      -80.6487   23.9771  -72.5700 H         1 UNK         0.0793 
    117 H117      -80.3614   24.7316  -74.9334 H         1 UNK         0.3047 
    118 H118      -78.7294   24.8557  -78.0468 H         1 UNK         0.0822 
    119 H119      -80.7937   25.7795  -79.0744 H         1 UNK         0.0807 
    120 H120      -81.7833   25.0516  -77.8073 H         1 UNK         0.0807 
    121 H121      -80.9165   24.0338  -78.9489 H         1 UNK         0.0807 
    122 H122      -80.3416   26.8266  -76.8150 H         1 UNK         0.2946 
    123 H123      -78.2412   27.8031  -74.1741 H         1 UNK         0.1144 
    124 H124      -78.0943   29.9730  -75.3436 H         1 UNK         0.0793 
    125 H125      -78.5986   29.2343  -76.8659 H         1 UNK         0.0793 
    126 H126      -77.0514   28.8123  -76.1452 H         1 UNK         0.0793 
    127 H127      -80.4511   29.1638  -75.1780 H         1 UNK         0.2896 
@<TRIPOS>BOND
     1    1    2 1    
     2    1   67 1    
     3    1   68 1    
     4    1   69 1    
     5    2    3 2    
     6    2    4 am   BACKBONE|DICT|INTERRES
     7    4    5 1    
     8    4   70 1    
     9    5    6 1    
    10    5   65 1    
    11    5   71 1    
    12    6    7 1    
    13    6   72 1    
    14    6   73 1    
    15    7    8 1    
    16    8    9 1    
    17    8   74 1    
    18    8   75 1    
    19    9   10 ar   
    20    9   14 ar   
    21   10   11 ar   
    22   10   76 1    
    23   11   12 ar   
    24   11   48 1    
    25   12   13 ar   
    26   12   77 1    
    27   13   14 ar   
    28   13   15 1    
    29   14   78 1    
    30   15   16 1    
    31   15   79 1    
    32   15   80 1    
    33   16   17 1    
    34   17   18 1    
    35   17   81 1    
    36   17   82 1    
    37   18   19 1    
    38   18   22 1    
    39   18   83 1    
    40   19   20 am   BACKBONE|DICT|INTERRES
    41   19   21 2    
    42   20   84 1    
    43   20   85 1    
    44   22   23 am   BACKBONE|DICT|INTERRES
    45   22   86 1    
    46   23   24 2    
    47   23   25 1    
    48   25   26 1    
    49   25   27 1    
    50   25   87 1    
    51   26   88 1    
    52   26   89 1    
    53   26   90 1    
    54   27   28 am   BACKBONE|DICT|INTERRES
    55   27   91 1    
    56   28   29 2    
    57   28   30 1    
    58   30   31 1    
    59   30   32 1    
    60   30   92 1    
    61   31   93 1    
    62   31   94 1    
    63   31   95 1    
    64   32   33 am   BACKBONE|DICT|INTERRES
    65   32   96 1    
    66   33   34 2    
    67   33   35 1    
    68   35   36 1    
    69   35   37 1    
    70   35   97 1    
    71   36   98 1    
    72   36   99 1    
    73   36  100 1    
    74   37   38 am   BACKBONE|DICT|INTERRES
    75   37  101 1    
    76   38   39 2    
    77   38   40 1    
    78   40   41 1    
    79   40   42 1    
    80   40  102 1    
    81   41  103 1    
    82   41  104 1    
    83   41  105 1    
    84   42   43 am   BACKBONE|DICT|INTERRES
    85   42  106 1    
    86   43   44 2    
    87   43   45 1    
    88   45   46 1    
    89   45   49 1    
    90   45  107 1    
    91   46   47 1    
    92   46  108 1    
    93   46  109 1    
    94   47   48 1    
    95   48  110 1    
    96   48  111 1    
    97   49   50 am   BACKBONE|DICT|INTERRES
    98   49  112 1    
    99   50   51 2    
   100   50   52 1    
   101   52   53 1    
   102   52   54 1    
   103   52  113 1    
   104   53  114 1    
   105   53  115 1    
   106   53  116 1    
   107   54   55 am   BACKBONE|DICT|INTERRES
   108   54  117 1    
   109   55   56 2    
   110   55   57 1    
   111   57   58 1    
   112   57   59 1    
   113   57  118 1    
   114   58  119 1    
   115   58  120 1    
   116   58  121 1    
   117   59   60 am   BACKBONE|DICT|INTERRES
   118   59  122 1    
   119   60   61 2    
   120   60   62 1    
   121   62   63 1    
   122   62   64 1    
   123   62  123 1    
   124   63  124 1    
   125   63  125 1    
   126   63  126 1    
   127   64   65 am   BACKBONE|DICT|INTERRES
   128   64  127 1    
   129   65   66 2    
@<TRIPOS>SUBSTRUCTURE
     1 UNK         1 GROUP             0       ****    0 ROOT    
