@<TRIPOS>MOLECULE
3R135
127   129    1
SMALL
USER_CHARGES


@<TRIPOS>ATOM
      1 CA        -86.3873   27.2772  -73.4105 C.3       0 UNK        -0.1998 
      2 C         -85.0068   27.7523  -73.8388 C.2       0 UNK         0.4909 
      3 O         -84.8958   28.5516  -74.7697 O.2       0 UNK        -0.5240 
      4 N         -83.9560   27.2752  -73.1604 N.am      1 UNK        -0.4739 
      5 CA        -82.5545   27.5823  -73.4677 C.3       1 UNK         0.0864 
      6 C6        -81.6187   27.2648  -72.2766 C.3       11 UNK        -0.0881 
      7 S7        -82.0168   28.2445  -70.7871 S.3       11 UNK        -0.2682 
      8 C8        -80.8725   29.6654  -70.9454 C.3       11 UNK         0.0289 
      9 C9        -79.3757   29.3562  -70.8317 C.ar      11 UNK        -0.0687 
     10 C10       -78.8855   28.0977  -70.4548 C.ar      11 UNK        -0.0823 
     11 C11       -77.5124   27.8525  -70.4173 C.ar      11 UNK        -0.0830 
     12 C12       -76.6198   28.8928  -70.6674 C.ar      11 UNK        -0.1021 
     13 C13       -77.0811   30.1431  -71.0800 C.ar      11 UNK        -0.0753 
     14 C14       -78.4609   30.3693  -71.1501 C.ar      11 UNK        -0.0933 
     15 C15       -76.0880   31.2273  -71.4871 C.3       11 UNK         0.0166 
     16 S16       -75.1406   30.7668  -72.9849 S.3       11 UNK        -0.2615 
     17 C17       -73.7951   29.7399  -72.2909 C.3       11 UNK        -0.0865 
     18 CA        -72.4131   30.0298  -72.9317 C.3       10 UNK         0.0862 
     19 C         -71.2504   29.5213  -72.0229 C.2       10 UNK         0.5551 
     20 N         -70.3420   28.6698  -72.4840 N.am      10 UNK        -0.7319 
     21 O         -71.1651   29.9207  -70.8641 O.2       10 UNK        -0.5018 
     22 N         -72.3568   29.5487  -74.3218 N.am      10 UNK        -0.4509 
     23 C         -71.4918   29.9939  -75.2416 C.2       10 UNK         0.4899 
     24 O         -70.7222   30.9383  -75.0555 O.2       10 UNK        -0.4839 
     25 CA        -71.4716   29.2348  -76.5827 C.3       9 UNK         0.0222 
     26 CB        -70.2710   29.6167  -77.4734 C.3       9 UNK        -0.1966 
     27 N         -71.5434   27.7771  -76.4203 N.am      9 UNK        -0.4218 
     28 C         -70.7184   26.9811  -75.7211 C.2       9 UNK         0.5020 
     29 O         -69.7479   27.3957  -75.0865 O.2       9 UNK        -0.5274 
     30 CA        -71.0321   25.4703  -75.6859 C.3       8 UNK         0.0270 
     31 CB        -71.4662   25.0483  -74.2718 C.3       8 UNK        -0.1976 
     32 N         -72.0673   25.0607  -76.6379 N.am      8 UNK        -0.4313 
     33 C         -71.9109   24.9810  -77.9665 C.2       8 UNK         0.5041 
     34 O         -70.8318   25.1223  -78.5420 O.2       8 UNK        -0.5577 
     35 CA        -73.1933   24.7792  -78.7924 C.3       7 UNK         0.0284 
     36 CB        -73.5443   23.2881  -78.9225 C.3       7 UNK        -0.1958 
     37 N         -74.3263   25.5199  -78.2241 N.am      7 UNK        -0.4454 
     38 C         -74.4270   26.8577  -78.2306 C.2       7 UNK         0.5089 
     39 O         -73.6142   27.5983  -78.7816 O.2       7 UNK        -0.5125 
     40 CA        -75.5968   27.4844  -77.4574 C.3       6 UNK         0.0408 
     41 CB        -76.8025   27.6846  -78.3875 C.3       6 UNK        -0.1791 
     42 N         -75.9790   26.6994  -76.2783 N.am      6 UNK        -0.4762 
     43 C         -75.2691   26.6746  -75.1375 C.2       6 UNK         0.5007 
     44 O         -74.2511   27.3458  -74.9575 O.2       6 UNK        -0.5032 
     45 CA        -75.7445   25.7219  -74.0188 C.3       5 UNK         0.0783 
     46 C46       -76.7722   26.4252  -73.1057 C.3       11 UNK        -0.0857 
     47 S47       -77.3098   25.3959  -71.6850 S.3       11 UNK        -0.2512 
     48 C48       -76.9833   26.4410  -70.2200 C.3       11 UNK         0.0225 
     49 N         -76.2555   24.4482  -74.5267 N.am      5 UNK        -0.4615 
     50 C         -75.5677   23.5495  -75.2352 C.2       4 UNK         0.5053 
     51 O         -74.4040   23.7244  -75.5953 O.2       4 UNK        -0.5105 
     52 CA        -76.2923   22.2495  -75.6345 C.3       4 UNK         0.0263 
     53 CB        -76.1445   21.1777  -74.5377 C.3       4 UNK        -0.1981 
     54 N         -77.6973   22.4313  -76.0365 N.am      4 UNK        -0.4224 
     55 C         -78.7466   22.8158  -75.2938 C.2       3 UNK         0.4895 
     56 O         -78.7027   23.0296  -74.0814 O.2       3 UNK        -0.5091 
     57 CA        -80.0576   23.0720  -76.0554 C.3       3 UNK         0.0250 
     58 CB        -81.2176   22.2699  -75.4423 C.3       3 UNK        -0.1996 
     59 N         -80.4222   24.4925  -76.0876 N.am      3 UNK        -0.4254 
     60 C         -79.6534   25.5111  -76.4953 C.2       2 UNK         0.5004 
     61 O         -78.4801   25.3885  -76.8480 O.2       2 UNK        -0.5226 
     62 CA        -80.2940   26.9103  -76.5455 C.3       2 UNK         0.0269 
     63 CB        -81.2010   27.0560  -77.7826 C.3       2 UNK        -0.1926 
     64 N         -80.9811   27.3474  -75.3213 N.am      2 UNK        -0.4687 
     65 C         -82.0791   26.8448  -74.7380 C.2       1 UNK         0.5165 
     66 O         -82.6787   25.8435  -75.1407 O.2       1 UNK        -0.5079 
     67 H67       -87.0033   28.1274  -73.1189 H         1 UNK         0.0900 
     68 H68       -86.8803   26.7655  -74.2366 H         1 UNK         0.0900 
     69 H69       -86.3378   26.5892  -72.5666 H         1 UNK         0.0900 
     70 H70       -84.1035   26.6141  -72.4115 H         1 UNK         0.2959 
     71 H71       -82.4893   28.6531  -73.6753 H         1 UNK         0.1079 
     72 H72       -80.5762   27.4395  -72.5473 H         1 UNK         0.0837 
     73 H73       -81.6818   26.2068  -72.0139 H         1 UNK         0.0837 
     74 H74       -81.1294   30.3905  -70.1721 H         1 UNK         0.0685 
     75 H75       -81.0664   30.1548  -71.9011 H         1 UNK         0.0685 
     76 H76       -79.5585   27.2806  -70.2398 H         1 UNK         0.1434 
     77 H77       -75.5610   28.6963  -70.6147 H         1 UNK         0.1329 
     78 H78       -78.8271   31.3363  -71.4676 H         1 UNK         0.1335 
     79 H79       -75.4122   31.4438  -70.6587 H         1 UNK         0.0680 
     80 H80       -76.6158   32.1592  -71.6949 H         1 UNK         0.0680 
     81 H81       -74.0522   28.6861  -72.4107 H         1 UNK         0.1032 
     82 H82       -73.7526   29.9236  -71.2162 H         1 UNK         0.1032 
     83 H83       -72.2925   31.1146  -72.9569 H         1 UNK         0.0461 
     84 H84       -69.6033   28.3686  -71.8691 H         1 UNK         0.3453 
     85 H85       -70.3470   28.3535  -73.4473 H         1 UNK         0.3453 
     86 H86       -72.9659   28.7688  -74.5545 H         1 UNK         0.2984 
     87 H87       -72.3807   29.5278  -77.1096 H         1 UNK         0.0554 
     88 H88       -70.2712   30.6844  -77.6957 H         1 UNK         0.0847 
     89 H89       -70.3026   29.0887  -78.4265 H         1 UNK         0.0847 
     90 H90       -69.3205   29.3839  -76.9920 H         1 UNK         0.0847 
     91 H91       -72.3229   27.3361  -76.8890 H         1 UNK         0.3141 
     92 H92       -70.1102   24.9408  -75.9347 H         1 UNK         0.0743 
     93 H93       -70.6900   25.2747  -73.5395 H         1 UNK         0.0784 
     94 H94       -72.3713   25.5679  -73.9567 H         1 UNK         0.0784 
     95 H95       -71.6595   23.9766  -74.2181 H         1 UNK         0.0784 
     96 H96       -72.9774   24.8245  -76.2485 H         1 UNK         0.3213 
     97 H97       -73.0053   25.1692  -79.7954 H         1 UNK         0.0855 
     98 H98       -73.7139   22.8191  -77.9537 H         1 UNK         0.0814 
     99 H99       -72.7331   22.7424  -79.4063 H         1 UNK         0.0814 
    100 H100      -74.4381   23.1415  -79.5290 H         1 UNK         0.0814 
    101 H101      -75.0189   24.9885  -77.7166 H         1 UNK         0.3105 
    102 H102      -75.2740   28.4720  -77.1198 H         1 UNK         0.0547 
    103 H103      -77.2059   26.7361  -78.7431 H         1 UNK         0.0837 
    104 H104      -77.6007   28.2304  -77.8876 H         1 UNK         0.0837 
    105 H105      -76.5226   28.2664  -79.2669 H         1 UNK         0.0837 
    106 H106      -76.8138   26.1215  -76.3628 H         1 UNK         0.3020 
    107 H107      -74.8647   25.4891  -73.4153 H         1 UNK         0.1245 
    108 H108      -77.6640   26.7009  -73.6722 H         1 UNK         0.0781 
    109 H109      -76.3420   27.3597  -72.7515 H         1 UNK         0.0781 
    110 H110      -75.9102   26.4496  -70.0223 H         1 UNK         0.0836 
    111 H111      -77.4536   25.9905  -69.3449 H         1 UNK         0.0836 
    112 H112      -77.1981   24.1947  -74.2433 H         1 UNK         0.3022 
    113 H113      -75.7815   21.8758  -76.5233 H         1 UNK         0.0747 
    114 H114      -76.6029   20.2359  -74.8389 H         1 UNK         0.0793 
    115 H115      -75.0921   20.9757  -74.3335 H         1 UNK         0.0793 
    116 H116      -76.6006   21.4877  -73.5970 H         1 UNK         0.0793 
    117 H117      -77.8565   22.3409  -77.0307 H         1 UNK         0.3047 
    118 H118      -79.9330   22.7467  -77.0901 H         1 UNK         0.0822 
    119 H119      -82.1305   22.3805  -76.0279 H         1 UNK         0.0807 
    120 H120      -81.4340   22.5913  -74.4224 H         1 UNK         0.0807 
    121 H121      -80.9819   21.2054  -75.4066 H         1 UNK         0.0807 
    122 H122      -81.3622   24.7317  -75.7807 H         1 UNK         0.2946 
    123 H123      -79.4695   27.6125  -76.6702 H         1 UNK         0.1144 
    124 H124      -81.5659   28.0777  -77.8877 H         1 UNK         0.0793 
    125 H125      -82.0669   26.3948  -77.7367 H         1 UNK         0.0793 
    126 H126      -80.6556   26.8122  -78.6955 H         1 UNK         0.0793 
    127 H127      -80.5552   28.1499  -74.8780 H         1 UNK         0.2896 
@<TRIPOS>BOND
     1    1    2 1    
     2    1   67 1    
     3    1   68 1    
     4    1   69 1    
     5    2    3 2    
     6    2    4 am   BACKBONE|DICT|INTERRES
     7    4    5 1    
     8    4   70 1    
     9    5    6 1    
    10    5   65 1    
    11    5   71 1    
    12    6    7 1    
    13    6   72 1    
    14    6   73 1    
    15    7    8 1    
    16    8    9 1    
    17    8   74 1    
    18    8   75 1    
    19    9   10 ar   
    20    9   14 ar   
    21   10   11 ar   
    22   10   76 1    
    23   11   12 ar   
    24   11   48 1    
    25   12   13 ar   
    26   12   77 1    
    27   13   14 ar   
    28   13   15 1    
    29   14   78 1    
    30   15   16 1    
    31   15   79 1    
    32   15   80 1    
    33   16   17 1    
    34   17   18 1    
    35   17   81 1    
    36   17   82 1    
    37   18   19 1    
    38   18   22 1    
    39   18   83 1    
    40   19   20 am   BACKBONE|DICT|INTERRES
    41   19   21 2    
    42   20   84 1    
    43   20   85 1    
    44   22   23 am   BACKBONE|DICT|INTERRES
    45   22   86 1    
    46   23   24 2    
    47   23   25 1    
    48   25   26 1    
    49   25   27 1    
    50   25   87 1    
    51   26   88 1    
    52   26   89 1    
    53   26   90 1    
    54   27   28 am   BACKBONE|DICT|INTERRES
    55   27   91 1    
    56   28   29 2    
    57   28   30 1    
    58   30   31 1    
    59   30   32 1    
    60   30   92 1    
    61   31   93 1    
    62   31   94 1    
    63   31   95 1    
    64   32   33 am   BACKBONE|DICT|INTERRES
    65   32   96 1    
    66   33   34 2    
    67   33   35 1    
    68   35   36 1    
    69   35   37 1    
    70   35   97 1    
    71   36   98 1    
    72   36   99 1    
    73   36  100 1    
    74   37   38 am   BACKBONE|DICT|INTERRES
    75   37  101 1    
    76   38   39 2    
    77   38   40 1    
    78   40   41 1    
    79   40   42 1    
    80   40  102 1    
    81   41  103 1    
    82   41  104 1    
    83   41  105 1    
    84   42   43 am   BACKBONE|DICT|INTERRES
    85   42  106 1    
    86   43   44 2    
    87   43   45 1    
    88   45   46 1    
    89   45   49 1    
    90   45  107 1    
    91   46   47 1    
    92   46  108 1    
    93   46  109 1    
    94   47   48 1    
    95   48  110 1    
    96   48  111 1    
    97   49   50 am   BACKBONE|DICT|INTERRES
    98   49  112 1    
    99   50   51 2    
   100   50   52 1    
   101   52   53 1    
   102   52   54 1    
   103   52  113 1    
   104   53  114 1    
   105   53  115 1    
   106   53  116 1    
   107   54   55 am   BACKBONE|DICT|INTERRES
   108   54  117 1    
   109   55   56 2    
   110   55   57 1    
   111   57   58 1    
   112   57   59 1    
   113   57  118 1    
   114   58  119 1    
   115   58  120 1    
   116   58  121 1    
   117   59   60 am   BACKBONE|DICT|INTERRES
   118   59  122 1    
   119   60   61 2    
   120   60   62 1    
   121   62   63 1    
   122   62   64 1    
   123   62  123 1    
   124   63  124 1    
   125   63  125 1    
   126   63  126 1    
   127   64   65 am   BACKBONE|DICT|INTERRES
   128   64  127 1    
   129   65   66 2    
@<TRIPOS>SUBSTRUCTURE
     1 UNK         1 GROUP             0       ****    0 ROOT    
