@<TRIPOS>MOLECULE
3R135
127   129    1
SMALL
USER_CHARGES


@<TRIPOS>ATOM
      1 CA        -84.9998   30.5693  -74.6702 C.3       0 UNK        -0.1998 
      2 C         -83.7474   30.0941  -75.3911 C.2       0 UNK         0.4909 
      3 O         -83.7015   30.1195  -76.6212 O.2       0 UNK        -0.5240 
      4 N         -82.7305   29.6606  -74.6346 N.am      1 UNK        -0.4739 
      5 CA        -81.4569   29.1385  -75.1498 C.3       1 UNK         0.0864 
      6 C6        -80.3370   29.1936  -74.0814 C.3       11 UNK        -0.0881 
      7 S7        -80.7850   28.4271  -72.4827 S.3       11 UNK        -0.2682 
      8 C8        -79.7189   26.9495  -72.4598 C.3       11 UNK         0.0289 
      9 C9        -78.3227   27.1660  -71.8738 C.ar      11 UNK        -0.0687 
     10 C10       -77.7326   26.1328  -71.1394 C.ar      11 UNK        -0.0823 
     11 C11       -76.4350   26.2583  -70.6329 C.ar      11 UNK        -0.0830 
     12 C12       -75.7274   27.4443  -70.8453 C.ar      11 UNK        -0.1021 
     13 C13       -76.3107   28.4977  -71.5542 C.ar      11 UNK        -0.0753 
     14 C14       -77.6016   28.3501  -72.0706 C.ar      11 UNK        -0.0933 
     15 C15       -75.5591   29.8045  -71.7509 C.3       11 UNK         0.0166 
     16 S16       -75.0631   30.0221  -73.4835 S.3       11 UNK        -0.2615 
     17 C17       -74.2634   31.6645  -73.4191 C.3       11 UNK        -0.0865 
     18 CA        -72.7321   31.6214  -73.6702 C.3       10 UNK         0.0862 
     19 C         -71.9211   31.1466  -72.4264 C.2       10 UNK         0.5551 
     20 N         -70.9568   30.2423  -72.5572 N.am      10 UNK        -0.7319 
     21 O         -72.1597   31.6228  -71.3194 O.2       10 UNK        -0.5018 
     22 N         -72.4327   30.8901  -74.9072 N.am      10 UNK        -0.4509 
     23 C         -71.4155   31.1251  -75.7391 C.2       10 UNK         0.4899 
     24 O         -70.6222   32.0599  -75.6186 O.2       10 UNK        -0.4839 
     25 CA        -71.2689   30.1055  -76.8819 C.3       9 UNK         0.0222 
     26 CB        -70.0073   30.3314  -77.7423 C.3       9 UNK        -0.1966 
     27 N         -71.3366   28.7212  -76.3920 N.am      9 UNK        -0.4218 
     28 C         -70.4930   28.1188  -75.5353 C.2       9 UNK         0.5020 
     29 O         -69.5447   28.6953  -75.0011 O.2       9 UNK        -0.5274 
     30 CA        -70.7436   26.6368  -75.1766 C.3       8 UNK         0.0270 
     31 CB        -70.9988   26.4892  -73.6663 C.3       8 UNK        -0.1976 
     32 N         -71.8528   26.0143  -75.9053 N.am      8 UNK        -0.4313 
     33 C         -71.8756   25.7573  -77.2227 C.2       8 UNK         0.5041 
     34 O         -70.8942   25.8930  -77.9539 O.2       8 UNK        -0.5577 
     35 CA        -73.2179   25.3275  -77.8515 C.3       7 UNK         0.0284 
     36 CB        -73.1534   23.8592  -78.3006 C.3       7 UNK        -0.1958 
     37 N         -74.3845   25.5227  -76.9810 N.am      7 UNK        -0.4454 
     38 C         -74.8164   26.7056  -76.5104 C.2       7 UNK         0.5089 
     39 O         -74.3180   27.7839  -76.8390 O.2       7 UNK        -0.5125 
     40 CA        -75.9380   26.6879  -75.4494 C.3       6 UNK         0.0408 
     41 CB        -77.2758   27.0893  -76.0851 C.3       6 UNK        -0.1791 
     42 N         -76.0963   25.4067  -74.7488 N.am      6 UNK        -0.4762 
     43 C         -75.1371   24.7970  -74.0290 C.2       6 UNK         0.5007 
     44 O         -74.0179   25.2847  -73.8649 O.2       6 UNK        -0.5032 
     45 CA        -75.4174   23.3627  -73.5062 C.3       5 UNK         0.0783 
     46 C46       -75.8192   23.2996  -72.0096 C.3       11 UNK        -0.0857 
     47 S47       -74.6709   24.1089  -70.8412 S.3       11 UNK        -0.2512 
     48 C48       -75.8055   25.1226  -69.8364 C.3       11 UNK         0.0225 
     49 N         -76.4169   22.6471  -74.3077 N.am      5 UNK        -0.4615 
     50 C         -76.3615   22.4039  -75.6237 C.2       4 UNK         0.5053 
     51 O         -75.3905   22.6784  -76.3268 O.2       4 UNK        -0.5105 
     52 CA        -77.6241   21.8089  -76.2760 C.3       4 UNK         0.0263 
     53 CB        -77.4528   20.2963  -76.4874 C.3       4 UNK        -0.1981 
     54 N         -78.8723   22.0578  -75.5377 N.am      4 UNK        -0.4224 
     55 C         -79.3765   23.2658  -75.2440 C.2       3 UNK         0.4895 
     56 O         -78.8126   24.3291  -75.5076 O.2       3 UNK        -0.5091 
     57 CA        -80.6898   23.2812  -74.4468 C.3       3 UNK         0.0250 
     58 CB        -80.3919   23.2917  -72.9386 C.3       3 UNK        -0.1996 
     59 N         -81.5249   24.4358  -74.7953 N.am      3 UNK        -0.4254 
     60 C         -82.2061   24.5379  -75.9451 C.2       2 UNK         0.5004 
     61 O         -82.1997   23.6694  -76.8194 O.2       2 UNK        -0.5226 
     62 CA        -83.0805   25.7860  -76.1531 C.3       2 UNK         0.0269 
     63 CB        -84.5360   25.4882  -75.7560 C.3       2 UNK        -0.1926 
     64 N         -82.6346   26.9891  -75.4440 N.am      2 UNK        -0.4687 
     65 C         -81.5896   27.7461  -75.8109 C.2       1 UNK         0.5165 
     66 O         -80.7816   27.4127  -76.6776 O.2       1 UNK        -0.5079 
     67 H67       -85.8571   29.9682  -74.9722 H         1 UNK         0.0900 
     68 H68       -84.8992   30.4970  -73.5874 H         1 UNK         0.0900 
     69 H69       -85.2062   31.6090  -74.9227 H         1 UNK         0.0900 
     70 H70       -82.8151   29.6634  -73.6270 H         1 UNK         0.2959 
     71 H71       -81.1473   29.8061  -75.9576 H         1 UNK         0.1079 
     72 H72       -79.4148   28.7606  -74.4698 H         1 UNK         0.0837 
     73 H73       -80.0958   30.2380  -73.8774 H         1 UNK         0.0837 
     74 H74       -80.2465   26.2024  -71.8660 H         1 UNK         0.0685 
     75 H75       -79.6281   26.5372  -73.4656 H         1 UNK         0.0685 
     76 H76       -78.2853   25.2202  -70.9660 H         1 UNK         0.1434 
     77 H77       -74.7253   27.5476  -70.4517 H         1 UNK         0.1329 
     78 H78       -78.0330   29.1684  -72.6268 H         1 UNK         0.1335 
     79 H79       -74.6722   29.8424  -71.1160 H         1 UNK         0.0680 
     80 H80       -76.1974   30.6357  -71.4476 H         1 UNK         0.0680 
     81 H81       -74.4948   32.1668  -72.4779 H         1 UNK         0.1032 
     82 H82       -74.7305   32.2799  -74.1894 H         1 UNK         0.1032 
     83 H83       -72.4183   32.6561  -73.8196 H         1 UNK         0.0461 
     84 H84       -70.7032   29.8785  -73.4649 H         1 UNK         0.3453 
     85 H85       -70.4407   29.9569  -71.7405 H         1 UNK         0.3453 
     86 H86       -73.0245   30.0892  -75.0795 H         1 UNK         0.2984 
     87 H87       -72.1363   30.2424  -77.5294 H         1 UNK         0.0554 
     88 H88       -70.0192   31.3223  -78.1980 H         1 UNK         0.0847 
     89 H89       -69.9438   29.6036  -78.5513 H         1 UNK         0.0847 
     90 H90       -69.0929   30.2579  -77.1529 H         1 UNK         0.0847 
     91 H91       -72.1318   28.1852  -76.7203 H         1 UNK         0.3141 
     92 H92       -69.8320   26.0896  -75.4250 H         1 UNK         0.0743 
     93 H93       -70.1593   26.8717  -73.0844 H         1 UNK         0.0784 
     94 H94       -71.8886   27.0380  -73.3535 H         1 UNK         0.0784 
     95 H95       -71.1354   25.4446  -73.3855 H         1 UNK         0.0784 
     96 H96       -72.6940   25.8379  -75.3635 H         1 UNK         0.3213 
     97 H97       -73.3672   25.9481  -78.7374 H         1 UNK         0.0855 
     98 H98       -72.9782   23.1888  -77.4583 H         1 UNK         0.0814 
     99 H99       -72.3427   23.7035  -79.0137 H         1 UNK         0.0814 
    100 H100      -74.0775   23.5502  -78.7894 H         1 UNK         0.0814 
    101 H101      -74.8412   24.6779  -76.6522 H         1 UNK         0.3105 
    102 H102      -75.6836   27.4310  -74.6930 H         1 UNK         0.0547 
    103 H103      -78.0784   27.0884  -75.3496 H         1 UNK         0.0837 
    104 H104      -77.2228   28.0922  -76.5105 H         1 UNK         0.0837 
    105 H105      -77.5633   26.4072  -76.8861 H         1 UNK         0.0837 
    106 H106      -76.9850   24.9334  -74.8848 H         1 UNK         0.3020 
    107 H107      -74.4773   22.8180  -73.6191 H         1 UNK         0.1245 
    108 H108      -75.8927   22.2551  -71.7026 H         1 UNK         0.0781 
    109 H109      -76.8215   23.7038  -71.8834 H         1 UNK         0.0781 
    110 H110      -75.2504   25.5365  -68.9933 H         1 UNK         0.0836 
    111 H111      -76.5752   24.4820  -69.4029 H         1 UNK         0.0836 
    112 H112      -77.2596   22.3767  -73.8243 H         1 UNK         0.3022 
    113 H113      -77.7276   22.2818  -77.2549 H         1 UNK         0.0747 
    114 H114      -78.2896   19.8750  -77.0450 H         1 UNK         0.0793 
    115 H115      -76.5473   20.0817  -77.0572 H         1 UNK         0.0793 
    116 H116      -77.3753   19.7618  -75.5397 H         1 UNK         0.0793 
    117 H117      -79.3950   21.2386  -75.2609 H         1 UNK         0.3047 
    118 H118      -81.2555   22.3757  -74.6785 H         1 UNK         0.0822 
    119 H119      -79.9339   22.3519  -72.6278 H         1 UNK         0.0807 
    120 H120      -81.3003   23.4162  -72.3488 H         1 UNK         0.0807 
    121 H121      -79.6987   24.0870  -72.6696 H         1 UNK         0.0807 
    122 H122      -81.5611   25.2042  -74.1432 H         1 UNK         0.2946 
    123 H123      -83.0628   26.0054  -77.2235 H         1 UNK         0.1144 
    124 H124      -85.1928   26.3240  -75.9985 H         1 UNK         0.0793 
    125 H125      -84.6300   25.2841  -74.6887 H         1 UNK         0.0793 
    126 H126      -84.9166   24.6157  -76.2893 H         1 UNK         0.0793 
    127 H127      -83.2418   27.3453  -74.7200 H         1 UNK         0.2896 
@<TRIPOS>BOND
     1    1    2 1    
     2    1   67 1    
     3    1   68 1    
     4    1   69 1    
     5    2    3 2    
     6    2    4 am   BACKBONE|DICT|INTERRES
     7    4    5 1    
     8    4   70 1    
     9    5    6 1    
    10    5   65 1    
    11    5   71 1    
    12    6    7 1    
    13    6   72 1    
    14    6   73 1    
    15    7    8 1    
    16    8    9 1    
    17    8   74 1    
    18    8   75 1    
    19    9   10 ar   
    20    9   14 ar   
    21   10   11 ar   
    22   10   76 1    
    23   11   12 ar   
    24   11   48 1    
    25   12   13 ar   
    26   12   77 1    
    27   13   14 ar   
    28   13   15 1    
    29   14   78 1    
    30   15   16 1    
    31   15   79 1    
    32   15   80 1    
    33   16   17 1    
    34   17   18 1    
    35   17   81 1    
    36   17   82 1    
    37   18   19 1    
    38   18   22 1    
    39   18   83 1    
    40   19   20 am   BACKBONE|DICT|INTERRES
    41   19   21 2    
    42   20   84 1    
    43   20   85 1    
    44   22   23 am   BACKBONE|DICT|INTERRES
    45   22   86 1    
    46   23   24 2    
    47   23   25 1    
    48   25   26 1    
    49   25   27 1    
    50   25   87 1    
    51   26   88 1    
    52   26   89 1    
    53   26   90 1    
    54   27   28 am   BACKBONE|DICT|INTERRES
    55   27   91 1    
    56   28   29 2    
    57   28   30 1    
    58   30   31 1    
    59   30   32 1    
    60   30   92 1    
    61   31   93 1    
    62   31   94 1    
    63   31   95 1    
    64   32   33 am   BACKBONE|DICT|INTERRES
    65   32   96 1    
    66   33   34 2    
    67   33   35 1    
    68   35   36 1    
    69   35   37 1    
    70   35   97 1    
    71   36   98 1    
    72   36   99 1    
    73   36  100 1    
    74   37   38 am   BACKBONE|DICT|INTERRES
    75   37  101 1    
    76   38   39 2    
    77   38   40 1    
    78   40   41 1    
    79   40   42 1    
    80   40  102 1    
    81   41  103 1    
    82   41  104 1    
    83   41  105 1    
    84   42   43 am   BACKBONE|DICT|INTERRES
    85   42  106 1    
    86   43   44 2    
    87   43   45 1    
    88   45   46 1    
    89   45   49 1    
    90   45  107 1    
    91   46   47 1    
    92   46  108 1    
    93   46  109 1    
    94   47   48 1    
    95   48  110 1    
    96   48  111 1    
    97   49   50 am   BACKBONE|DICT|INTERRES
    98   49  112 1    
    99   50   51 2    
   100   50   52 1    
   101   52   53 1    
   102   52   54 1    
   103   52  113 1    
   104   53  114 1    
   105   53  115 1    
   106   53  116 1    
   107   54   55 am   BACKBONE|DICT|INTERRES
   108   54  117 1    
   109   55   56 2    
   110   55   57 1    
   111   57   58 1    
   112   57   59 1    
   113   57  118 1    
   114   58  119 1    
   115   58  120 1    
   116   58  121 1    
   117   59   60 am   BACKBONE|DICT|INTERRES
   118   59  122 1    
   119   60   61 2    
   120   60   62 1    
   121   62   63 1    
   122   62   64 1    
   123   62  123 1    
   124   63  124 1    
   125   63  125 1    
   126   63  126 1    
   127   64   65 am   BACKBONE|DICT|INTERRES
   128   64  127 1    
   129   65   66 2    
@<TRIPOS>SUBSTRUCTURE
     1 UNK         1 GROUP             0       ****    0 ROOT    
