@<TRIPOS>MOLECULE
3R135
127   129    1
SMALL
USER_CHARGES


@<TRIPOS>ATOM
      1 CA        -81.8587   25.6412  -70.0791 C.3       0 UNK        -0.1998 
      2 C         -82.3040   26.4517  -71.2868 C.2       0 UNK         0.4909 
      3 O         -83.4916   26.4666  -71.6108 O.2       0 UNK        -0.5240 
      4 N         -81.3576   27.1211  -71.9573 N.am      1 UNK        -0.4739 
      5 CA        -81.6013   27.9581  -73.1435 C.3       1 UNK         0.0864 
      6 C6        -80.6254   29.1625  -73.2133 C.3       11 UNK        -0.0881 
      7 S7        -80.8284   30.2517  -71.7553 S.3       11 UNK        -0.2682 
      8 C8        -79.1621   30.9687  -71.5183 C.3       11 UNK         0.0289 
      9 C9        -78.0376   29.9722  -71.2292 C.ar      11 UNK        -0.0687 
     10 C10       -78.2799   28.6944  -70.7092 C.ar      11 UNK        -0.0823 
     11 C11       -77.2359   27.7768  -70.5711 C.ar      11 UNK        -0.0830 
     12 C12       -75.9295   28.1708  -70.8653 C.ar      11 UNK        -0.1021 
     13 C13       -75.6568   29.4582  -71.3316 C.ar      11 UNK        -0.0753 
     14 C14       -76.7212   30.3505  -71.5168 C.ar      11 UNK        -0.0933 
     15 C15       -74.1983   29.8001  -71.6338 C.3       11 UNK         0.0166 
     16 S16       -73.8273   31.5306  -72.0959 S.3       11 UNK        -0.2615 
     17 C17       -74.4099   31.8110  -73.8159 C.3       11 UNK        -0.0865 
     18 CA        -74.6410   30.6045  -74.7824 C.3       10 UNK         0.0862 
     19 C         -75.1144   31.1122  -76.1814 C.2       10 UNK         0.5551 
     20 N         -74.5994   30.6062  -77.2947 N.am      10 UNK        -0.7319 
     21 O         -75.9882   31.9722  -76.2597 O.2       10 UNK        -0.5018 
     22 N         -73.5199   29.6471  -74.8046 N.am      10 UNK        -0.4509 
     23 C         -72.2456   29.9369  -75.1004 C.2       10 UNK         0.4899 
     24 O         -71.8805   31.0044  -75.5932 O.2       10 UNK        -0.4839 
     25 CA        -71.1745   28.9046  -74.7218 C.3       9 UNK         0.0222 
     26 CB        -70.6020   29.2775  -73.3343 C.3       9 UNK        -0.1966 
     27 N         -71.6571   27.5171  -74.7467 N.am      9 UNK        -0.4218 
     28 C         -70.8758   26.4397  -74.5760 C.2       9 UNK         0.5020 
     29 O         -69.6637   26.4894  -74.3599 O.2       9 UNK        -0.5274 
     30 CA        -71.5476   25.0611  -74.6774 C.3       8 UNK         0.0270 
     31 CB        -72.2822   24.7160  -73.3711 C.3       8 UNK        -0.1976 
     32 N         -72.4565   24.9453  -75.8197 N.am      8 UNK        -0.4313 
     33 C         -72.0731   25.0164  -77.1038 C.2       8 UNK         0.5041 
     34 O         -70.9025   25.1462  -77.4651 O.2       8 UNK        -0.5577 
     35 CA        -73.1731   24.9288  -78.1740 C.3       7 UNK         0.0284 
     36 CB        -73.4594   23.4612  -78.5303 C.3       7 UNK        -0.1958 
     37 N         -74.4182   25.5912  -77.7825 N.am      7 UNK        -0.4454 
     38 C         -74.5546   26.9088  -77.5766 C.2       7 UNK         0.5089 
     39 O         -73.6474   27.7306  -77.7140 O.2       7 UNK        -0.5125 
     40 CA        -75.9304   27.3831  -77.0818 C.3       6 UNK         0.0408 
     41 CB        -76.9535   27.4246  -78.2262 C.3       6 UNK        -0.1791 
     42 N         -76.4401   26.5782  -75.9749 N.am      6 UNK        -0.4762 
     43 C         -75.8366   26.4533  -74.7835 C.2       6 UNK         0.5007 
     44 O         -74.7849   27.0231  -74.4762 O.2       6 UNK        -0.5032 
     45 CA        -76.5237   25.5095  -73.7781 C.3       5 UNK         0.0783 
     46 C46       -77.7345   26.2249  -73.1354 C.3       11 UNK        -0.0857 
     47 S47       -78.3420   25.4220  -71.6071 S.3       11 UNK        -0.2512 
     48 C48       -77.5260   26.3226  -70.2328 C.3       11 UNK         0.0225 
     49 N         -76.9160   24.2479  -74.4165 N.am      5 UNK        -0.4615 
     50 C         -76.0748   23.3726  -74.9845 C.2       4 UNK         0.5053 
     51 O         -74.8510   23.4922  -74.9763 O.2       4 UNK        -0.5105 
     52 CA        -76.7131   22.1917  -75.7348 C.3       4 UNK         0.0263 
     53 CB        -77.1773   21.1073  -74.7495 C.3       4 UNK        -0.1981 
     54 N         -77.8364   22.6056  -76.5807 N.am      4 UNK        -0.4224 
     55 C         -77.7293   23.4138  -77.6468 C.2       3 UNK         0.4895 
     56 O         -76.6599   23.8479  -78.0711 O.2       3 UNK        -0.5091 
     57 CA        -79.0383   23.8520  -78.3299 C.3       3 UNK         0.0250 
     58 CB        -79.4406   22.8451  -79.4188 C.3       3 UNK        -0.1996 
     59 N         -80.1536   24.0393  -77.3947 N.am      3 UNK        -0.4254 
     60 C         -80.1518   24.9043  -76.3702 C.2       2 UNK         0.5004 
     61 O         -79.2159   25.6715  -76.1358 O.2       2 UNK        -0.5226 
     62 CA        -81.3681   24.8389  -75.4294 C.3       2 UNK         0.0269 
     63 CB        -81.4832   23.4467  -74.7792 C.3       2 UNK        -0.1926 
     64 N         -81.3116   25.8272  -74.3513 N.am      2 UNK        -0.4687 
     65 C         -81.6166   27.1288  -74.4507 C.2       1 UNK         0.5165 
     66 O         -81.9464   27.6690  -75.5077 O.2       1 UNK        -0.5079 
     67 H67       -81.9293   24.5756  -70.2952 H         1 UNK         0.0900 
     68 H68       -82.4977   25.8594  -69.2238 H         1 UNK         0.0900 
     69 H69       -80.8310   25.8648  -69.7946 H         1 UNK         0.0900 
     70 H70       -80.3936   27.0449  -71.6656 H         1 UNK         0.2959 
     71 H71       -82.6082   28.3748  -73.0633 H         1 UNK         0.1079 
     72 H72       -80.8139   29.7626  -74.1056 H         1 UNK         0.0837 
     73 H73       -79.5933   28.8178  -73.2893 H         1 UNK         0.0837 
     74 H74       -78.9183   31.5472  -72.4109 H         1 UNK         0.0685 
     75 H75       -79.2094   31.6801  -70.6930 H         1 UNK         0.0685 
     76 H76       -79.2865   28.3839  -70.4729 H         1 UNK         0.1434 
     77 H77       -75.1206   27.4596  -70.7648 H         1 UNK         0.1329 
     78 H78       -76.5394   31.3444  -71.8971 H         1 UNK         0.1335 
     79 H79       -73.6259   29.6004  -70.7269 H         1 UNK         0.0680 
     80 H80       -73.8094   29.1022  -72.3704 H         1 UNK         0.0680 
     81 H81       -73.6972   32.5025  -74.2691 H         1 UNK         0.1032 
     82 H82       -75.3351   32.3838  -73.7319 H         1 UNK         0.1032 
     83 H83       -75.4842   30.0339  -74.3919 H         1 UNK         0.0461 
     84 H84       -73.9177   29.8603  -77.2544 H         1 UNK         0.3453 
     85 H85       -74.9177   30.9508  -78.1858 H         1 UNK         0.3453 
     86 H86       -73.7632   28.7238  -74.4649 H         1 UNK         0.2984 
     87 H87       -70.3772   28.9900  -75.4629 H         1 UNK         0.0554 
     88 H88       -69.6819   28.7392  -73.1108 H         1 UNK         0.0847 
     89 H89       -71.3141   29.0678  -72.5361 H         1 UNK         0.0847 
     90 H90       -70.3593   30.3400  -73.2792 H         1 UNK         0.0847 
     91 H91       -72.6341   27.3663  -74.9694 H         1 UNK         0.3141 
     92 H92       -70.7560   24.3218  -74.8175 H         1 UNK         0.0743 
     93 H93       -72.6588   23.6933  -73.3871 H         1 UNK         0.0784 
     94 H94       -71.6126   24.7982  -72.5139 H         1 UNK         0.0784 
     95 H95       -73.1260   25.3812  -73.1891 H         1 UNK         0.0784 
     96 H96       -73.4297   24.7413  -75.6106 H         1 UNK         0.3213 
     97 H97       -72.8005   25.4309  -79.0694 H         1 UNK         0.0855 
     98 H98       -73.8729   22.9146  -77.6817 H         1 UNK         0.0814 
     99 H99       -72.5477   22.9478  -78.8386 H         1 UNK         0.0814 
    100 H100      -74.1689   23.3848  -79.3543 H         1 UNK         0.0814 
    101 H101      -75.2391   24.9956  -77.6890 H         1 UNK         0.3105 
    102 H102      -75.8252   28.3932  -76.6948 H         1 UNK         0.0547 
    103 H103      -77.0904   26.4461  -78.6847 H         1 UNK         0.0837 
    104 H104      -77.9267   27.7711  -77.8778 H         1 UNK         0.0837 
    105 H105      -76.6269   28.1077  -79.0112 H         1 UNK         0.0837 
    106 H106      -77.3327   26.1106  -76.1173 H         1 UNK         0.3020 
    107 H107      -75.7908   25.2846  -73.0002 H         1 UNK         0.1245 
    108 H108      -78.5711   26.2450  -73.8290 H         1 UNK         0.0781 
    109 H109      -77.5224   27.2792  -72.9733 H         1 UNK         0.0781 
    110 H110      -78.1582   26.2712  -69.3454 H         1 UNK         0.0836 
    111 H111      -76.6034   25.7996  -69.9762 H         1 UNK         0.0836 
    112 H112      -77.9079   24.0873  -74.4997 H         1 UNK         0.3022 
    113 H113      -75.9476   21.7593  -76.3829 H         1 UNK         0.0747 
    114 H114      -77.5529   20.2290  -75.2751 H         1 UNK         0.0793 
    115 H115      -76.3511   20.7759  -74.1187 H         1 UNK         0.0793 
    116 H116      -77.9673   21.4671  -74.0890 H         1 UNK         0.0793 
    117 H117      -78.7552   22.2859  -76.3130 H         1 UNK         0.3047 
    118 H118      -78.8506   24.8141  -78.8101 H         1 UNK         0.0822 
    119 H119      -80.3114   23.1899  -79.9767 H         1 UNK         0.0807 
    120 H120      -79.6751   21.8657  -78.9998 H         1 UNK         0.0807 
    121 H121      -78.6323   22.7064  -80.1385 H         1 UNK         0.0807 
    122 H122      -80.9592   23.4452  -77.5300 H         1 UNK         0.2946 
    123 H123      -82.2623   25.0288  -76.0278 H         1 UNK         0.1144 
    124 H124      -82.3387   23.3967  -74.1047 H         1 UNK         0.0793 
    125 H125      -80.5918   23.1943  -74.2030 H         1 UNK         0.0793 
    126 H126      -81.6258   22.6624  -75.5233 H         1 UNK         0.0793 
    127 H127      -81.0381   25.4855  -73.4422 H         1 UNK         0.2896 
@<TRIPOS>BOND
     1    1    2 1    
     2    1   67 1    
     3    1   68 1    
     4    1   69 1    
     5    2    3 2    
     6    2    4 am   BACKBONE|DICT|INTERRES
     7    4    5 1    
     8    4   70 1    
     9    5    6 1    
    10    5   65 1    
    11    5   71 1    
    12    6    7 1    
    13    6   72 1    
    14    6   73 1    
    15    7    8 1    
    16    8    9 1    
    17    8   74 1    
    18    8   75 1    
    19    9   10 ar   
    20    9   14 ar   
    21   10   11 ar   
    22   10   76 1    
    23   11   12 ar   
    24   11   48 1    
    25   12   13 ar   
    26   12   77 1    
    27   13   14 ar   
    28   13   15 1    
    29   14   78 1    
    30   15   16 1    
    31   15   79 1    
    32   15   80 1    
    33   16   17 1    
    34   17   18 1    
    35   17   81 1    
    36   17   82 1    
    37   18   19 1    
    38   18   22 1    
    39   18   83 1    
    40   19   20 am   BACKBONE|DICT|INTERRES
    41   19   21 2    
    42   20   84 1    
    43   20   85 1    
    44   22   23 am   BACKBONE|DICT|INTERRES
    45   22   86 1    
    46   23   24 2    
    47   23   25 1    
    48   25   26 1    
    49   25   27 1    
    50   25   87 1    
    51   26   88 1    
    52   26   89 1    
    53   26   90 1    
    54   27   28 am   BACKBONE|DICT|INTERRES
    55   27   91 1    
    56   28   29 2    
    57   28   30 1    
    58   30   31 1    
    59   30   32 1    
    60   30   92 1    
    61   31   93 1    
    62   31   94 1    
    63   31   95 1    
    64   32   33 am   BACKBONE|DICT|INTERRES
    65   32   96 1    
    66   33   34 2    
    67   33   35 1    
    68   35   36 1    
    69   35   37 1    
    70   35   97 1    
    71   36   98 1    
    72   36   99 1    
    73   36  100 1    
    74   37   38 am   BACKBONE|DICT|INTERRES
    75   37  101 1    
    76   38   39 2    
    77   38   40 1    
    78   40   41 1    
    79   40   42 1    
    80   40  102 1    
    81   41  103 1    
    82   41  104 1    
    83   41  105 1    
    84   42   43 am   BACKBONE|DICT|INTERRES
    85   42  106 1    
    86   43   44 2    
    87   43   45 1    
    88   45   46 1    
    89   45   49 1    
    90   45  107 1    
    91   46   47 1    
    92   46  108 1    
    93   46  109 1    
    94   47   48 1    
    95   48  110 1    
    96   48  111 1    
    97   49   50 am   BACKBONE|DICT|INTERRES
    98   49  112 1    
    99   50   51 2    
   100   50   52 1    
   101   52   53 1    
   102   52   54 1    
   103   52  113 1    
   104   53  114 1    
   105   53  115 1    
   106   53  116 1    
   107   54   55 am   BACKBONE|DICT|INTERRES
   108   54  117 1    
   109   55   56 2    
   110   55   57 1    
   111   57   58 1    
   112   57   59 1    
   113   57  118 1    
   114   58  119 1    
   115   58  120 1    
   116   58  121 1    
   117   59   60 am   BACKBONE|DICT|INTERRES
   118   59  122 1    
   119   60   61 2    
   120   60   62 1    
   121   62   63 1    
   122   62   64 1    
   123   62  123 1    
   124   63  124 1    
   125   63  125 1    
   126   63  126 1    
   127   64   65 am   BACKBONE|DICT|INTERRES
   128   64  127 1    
   129   65   66 2    
@<TRIPOS>SUBSTRUCTURE
     1 UNK         1 GROUP             0       ****    0 ROOT    
