@<TRIPOS>MOLECULE
3R135
127   129    1
SMALL
USER_CHARGES


@<TRIPOS>ATOM
      1 CA        -81.0563   21.9218  -72.8345 C.3       0 UNK        -0.1998 
      2 C         -81.6035   23.2914  -73.2052 C.2       0 UNK         0.4909 
      3 O         -82.1966   23.4479  -74.2730 O.2       0 UNK        -0.5240 
      4 N         -81.3969   24.2895  -72.3376 N.am      1 UNK        -0.4739 
      5 CA        -81.7840   25.6912  -72.5311 C.3       1 UNK         0.0864 
      6 C6        -81.5647   26.5517  -71.2568 C.3       11 UNK        -0.0881 
      7 S7        -80.0301   26.1852  -70.3284 S.3       11 UNK        -0.2682 
      8 C8        -79.4742   27.8431  -69.8305 C.3       11 UNK         0.0289 
      9 C9        -78.3970   28.3809  -70.7592 C.ar      11 UNK        -0.0687 
     10 C10       -78.7155   29.2766  -71.7849 C.ar      11 UNK        -0.0823 
     11 C11       -77.7094   29.8193  -72.5933 C.ar      11 UNK        -0.0830 
     12 C12       -76.3786   29.4491  -72.3703 C.ar      11 UNK        -0.1021 
     13 C13       -76.0530   28.5380  -71.3619 C.ar      11 UNK        -0.0753 
     14 C14       -77.0652   28.0082  -70.5592 C.ar      11 UNK        -0.0933 
     15 C15       -74.6055   28.1439  -71.1294 C.3       11 UNK         0.0166 
     16 S16       -73.7381   29.4378  -70.1878 S.3       11 UNK        -0.2615 
     17 C17       -72.1190   29.5111  -71.0258 C.3       11 UNK        -0.0865 
     18 CA        -71.9907   30.7396  -71.9725 C.3       10 UNK         0.0862 
     19 C         -71.6115   32.0400  -71.2122 C.2       10 UNK         0.5551 
     20 N         -72.5454   32.6246  -70.4765 N.am      10 UNK        -0.7319 
     21 O         -70.4784   32.5167  -71.2729 O.2       10 UNK        -0.5018 
     22 N         -71.0238   30.4867  -73.0469 N.am      10 UNK        -0.4509 
     23 C         -71.2056   29.8568  -74.2128 C.2       10 UNK         0.4899 
     24 O         -70.2846   29.7346  -75.0214 O.2       10 UNK        -0.4839 
     25 CA        -72.5982   29.3080  -74.5931 C.3       9 UNK         0.0222 
     26 CB        -73.3475   30.3348  -75.4567 C.3       9 UNK        -0.1966 
     27 N         -72.4688   28.0406  -75.3202 N.am      9 UNK        -0.4218 
     28 C         -72.0980   26.8933  -74.7366 C.2       9 UNK         0.5020 
     29 O         -72.0717   26.7306  -73.5148 O.2       9 UNK        -0.5274 
     30 CA        -71.6412   25.7596  -75.6652 C.3       8 UNK         0.0270 
     31 CB        -70.8413   24.6752  -74.9070 C.3       8 UNK        -0.1976 
     32 N         -72.7751   25.1542  -76.3634 N.am      8 UNK        -0.4313 
     33 C         -72.6495   24.4061  -77.4689 C.2       8 UNK         0.5041 
     34 O         -71.5826   24.2374  -78.0628 O.2       8 UNK        -0.5577 
     35 CA        -73.9084   23.7033  -77.9996 C.3       7 UNK         0.0284 
     36 CB        -74.3273   22.5525  -77.0696 C.3       7 UNK        -0.1958 
     37 N         -75.0292   24.6180  -78.2087 N.am      7 UNK        -0.4454 
     38 C         -75.0729   25.5561  -79.1654 C.2       7 UNK         0.5089 
     39 O         -74.1829   25.7320  -79.9983 O.2       7 UNK        -0.5125 
     40 CA        -76.3216   26.4543  -79.2050 C.3       6 UNK         0.0408 
     41 CB        -77.4485   25.7773  -80.0004 C.3       6 UNK        -0.1791 
     42 N         -76.8104   26.8208  -77.8742 N.am      6 UNK        -0.4762 
     43 C         -76.1254   27.5610  -76.9899 C.2       6 UNK         0.5007 
     44 O         -75.0184   28.0454  -77.2232 O.2       6 UNK        -0.5032 
     45 CA        -76.7703   27.7503  -75.6006 C.3       5 UNK         0.0783 
     46 C46       -77.9111   28.8019  -75.6371 C.3       11 UNK        -0.0857 
     47 S47       -77.3003   30.4829  -75.2964 S.3       11 UNK        -0.2512 
     48 C48       -78.0671   30.8335  -73.6770 C.3       11 UNK         0.0225 
     49 N         -77.2301   26.4816  -75.0333 N.am      5 UNK        -0.4615 
     50 C         -76.4633   25.4103  -74.7898 C.2       4 UNK         0.5053 
     51 O         -75.2432   25.3796  -74.9500 O.2       4 UNK        -0.5105 
     52 CA        -77.2025   24.1332  -74.3611 C.3       4 UNK         0.0263 
     53 CB        -77.5004   24.1444  -72.8528 C.3       4 UNK        -0.1981 
     54 N         -78.4427   23.9560  -75.1230 N.am      4 UNK        -0.4224 
     55 C         -78.4814   23.6521  -76.4300 C.2       3 UNK         0.4895 
     56 O         -77.4812   23.4099  -77.1032 O.2       3 UNK        -0.5091 
     57 CA        -79.8555   23.6673  -77.1188 C.3       3 UNK         0.0250 
     58 CB        -80.5435   22.2986  -77.0012 C.3       3 UNK        -0.1996 
     59 N         -80.7283   24.7227  -76.5975 N.am      3 UNK        -0.4254 
     60 C         -80.5322   26.0291  -76.8384 C.2       2 UNK         0.5004 
     61 O         -79.6338   26.4579  -77.5607 O.2       2 UNK        -0.5226 
     62 CA        -81.4531   27.0363  -76.1261 C.3       2 UNK         0.0269 
     63 CB        -82.6670   27.3697  -77.0071 C.3       2 UNK        -0.1926 
     64 N         -81.9138   26.5854  -74.8101 N.am      2 UNK        -0.4687 
     65 C         -81.1078   26.2889  -73.7811 C.2       1 UNK         0.5165 
     66 O         -79.8828   26.4093  -73.8240 O.2       1 UNK        -0.5079 
     67 H67       -80.2467   21.6446  -73.5088 H         1 UNK         0.0900 
     68 H68       -80.6713   21.9007  -71.8151 H         1 UNK         0.0900 
     69 H69       -81.8409   21.1701  -72.9151 H         1 UNK         0.0900 
     70 H70       -80.8741   24.1169  -71.4899 H         1 UNK         0.2959 
     71 H71       -82.8599   25.6862  -72.7206 H         1 UNK         0.1079 
     72 H72       -81.6144   27.6153  -71.4979 H         1 UNK         0.0837 
     73 H73       -82.3926   26.3769  -70.5679 H         1 UNK         0.0837 
     74 H74       -80.3190   28.5309  -69.7734 H         1 UNK         0.0685 
     75 H75       -79.0753   27.7811  -68.8169 H         1 UNK         0.0685 
     76 H76       -79.7461   29.5649  -71.9390 H         1 UNK         0.1434 
     77 H77       -75.5927   29.8744  -72.9791 H         1 UNK         0.1329 
     78 H78       -76.8165   27.3153  -69.7670 H         1 UNK         0.1335 
     79 H79       -74.1285   27.9595  -72.0902 H         1 UNK         0.0680 
     80 H80       -74.5428   27.2033  -70.5802 H         1 UNK         0.0680 
     81 H81       -71.9697   28.5804  -71.5739 H         1 UNK         0.1032 
     82 H82       -71.3310   29.5176  -70.2702 H         1 UNK         0.1032 
     83 H83       -72.9548   30.9439  -72.4409 H         1 UNK         0.0461 
     84 H84       -72.3201   33.4668  -69.9705 H         1 UNK         0.3453 
     85 H85       -73.4632   32.2149  -70.3911 H         1 UNK         0.3453 
     86 H86       -70.1197   30.9013  -72.8613 H         1 UNK         0.2984 
     87 H87       -73.1910   29.1195  -73.7021 H         1 UNK         0.0554 
     88 H88       -73.4183   31.2981  -74.9501 H         1 UNK         0.0847 
     89 H89       -74.3655   30.0117  -75.6637 H         1 UNK         0.0847 
     90 H90       -72.8480   30.5044  -76.4113 H         1 UNK         0.0847 
     91 H91       -72.5000   28.0902  -76.3290 H         1 UNK         0.3141 
     92 H92       -70.9759   26.2126  -76.4036 H         1 UNK         0.0743 
     93 H93       -71.4714   24.1346  -74.1995 H         1 UNK         0.0784 
     94 H94       -70.4023   23.9464  -75.5880 H         1 UNK         0.0784 
     95 H95       -70.0197   25.1180  -74.3423 H         1 UNK         0.0784 
     96 H96       -73.6896   25.2634  -75.9213 H         1 UNK         0.3213 
     97 H97       -73.6551   23.2664  -78.9682 H         1 UNK         0.0855 
     98 H98       -74.6424   22.9144  -76.0911 H         1 UNK         0.0814 
     99 H99       -73.5005   21.8592  -76.9100 H         1 UNK         0.0814 
    100 H100      -75.1513   21.9797  -77.4954 H         1 UNK         0.0814 
    101 H101      -75.8400   24.4936  -77.6108 H         1 UNK         0.3105 
    102 H102      -76.0502   27.3772  -79.7217 H         1 UNK         0.0547 
    103 H103      -78.3143   26.4324  -80.0984 H         1 UNK         0.0837 
    104 H104      -77.7800   24.8543  -79.5240 H         1 UNK         0.0837 
    105 H105      -77.1174   25.5240  -81.0083 H         1 UNK         0.0837 
    106 H106      -77.7509   26.5148  -77.6331 H         1 UNK         0.3020 
    107 H107      -75.9812   28.0990  -74.9307 H         1 UNK         0.1245 
    108 H108      -78.6732   28.5637  -74.8943 H         1 UNK         0.0781 
    109 H109      -78.4395   28.8045  -76.5925 H         1 UNK         0.0781 
    110 H110      -79.1484   30.8876  -73.8130 H         1 UNK         0.0836 
    111 H111      -77.7500   31.8234  -73.3468 H         1 UNK         0.0836 
    112 H112      -78.2153   26.4263  -74.7906 H         1 UNK         0.3022 
    113 H113      -76.5520   23.2815  -74.5695 H         1 UNK         0.0747 
    114 H114      -78.0110   23.2336  -72.5404 H         1 UNK         0.0793 
    115 H115      -76.5758   24.2113  -72.2780 H         1 UNK         0.0793 
    116 H116      -78.1192   24.9933  -72.5615 H         1 UNK         0.0793 
    117 H117      -79.3014   24.2188  -74.6612 H         1 UNK         0.3047 
    118 H118      -79.6889   23.8637  -78.1802 H         1 UNK         0.0822 
    119 H119      -81.5089   22.2945  -77.5074 H         1 UNK         0.0807 
    120 H120      -80.7080   22.0107  -75.9635 H         1 UNK         0.0807 
    121 H121      -79.9339   21.5189  -77.4599 H         1 UNK         0.0807 
    122 H122      -81.4644   24.4393  -75.9582 H         1 UNK         0.2946 
    123 H123      -80.8767   27.9518  -75.9784 H         1 UNK         0.1144 
    124 H124      -83.3006   26.4969  -77.1699 H         1 UNK         0.0793 
    125 H125      -82.3499   27.7297  -77.9871 H         1 UNK         0.0793 
    126 H126      -83.2798   28.1526  -76.5598 H         1 UNK         0.0793 
    127 H127      -82.9064   26.4243  -74.7135 H         1 UNK         0.2896 
@<TRIPOS>BOND
     1    1    2 1    
     2    1   67 1    
     3    1   68 1    
     4    1   69 1    
     5    2    3 2    
     6    2    4 am   BACKBONE|DICT|INTERRES
     7    4    5 1    
     8    4   70 1    
     9    5    6 1    
    10    5   65 1    
    11    5   71 1    
    12    6    7 1    
    13    6   72 1    
    14    6   73 1    
    15    7    8 1    
    16    8    9 1    
    17    8   74 1    
    18    8   75 1    
    19    9   10 ar   
    20    9   14 ar   
    21   10   11 ar   
    22   10   76 1    
    23   11   12 ar   
    24   11   48 1    
    25   12   13 ar   
    26   12   77 1    
    27   13   14 ar   
    28   13   15 1    
    29   14   78 1    
    30   15   16 1    
    31   15   79 1    
    32   15   80 1    
    33   16   17 1    
    34   17   18 1    
    35   17   81 1    
    36   17   82 1    
    37   18   19 1    
    38   18   22 1    
    39   18   83 1    
    40   19   20 am   BACKBONE|DICT|INTERRES
    41   19   21 2    
    42   20   84 1    
    43   20   85 1    
    44   22   23 am   BACKBONE|DICT|INTERRES
    45   22   86 1    
    46   23   24 2    
    47   23   25 1    
    48   25   26 1    
    49   25   27 1    
    50   25   87 1    
    51   26   88 1    
    52   26   89 1    
    53   26   90 1    
    54   27   28 am   BACKBONE|DICT|INTERRES
    55   27   91 1    
    56   28   29 2    
    57   28   30 1    
    58   30   31 1    
    59   30   32 1    
    60   30   92 1    
    61   31   93 1    
    62   31   94 1    
    63   31   95 1    
    64   32   33 am   BACKBONE|DICT|INTERRES
    65   32   96 1    
    66   33   34 2    
    67   33   35 1    
    68   35   36 1    
    69   35   37 1    
    70   35   97 1    
    71   36   98 1    
    72   36   99 1    
    73   36  100 1    
    74   37   38 am   BACKBONE|DICT|INTERRES
    75   37  101 1    
    76   38   39 2    
    77   38   40 1    
    78   40   41 1    
    79   40   42 1    
    80   40  102 1    
    81   41  103 1    
    82   41  104 1    
    83   41  105 1    
    84   42   43 am   BACKBONE|DICT|INTERRES
    85   42  106 1    
    86   43   44 2    
    87   43   45 1    
    88   45   46 1    
    89   45   49 1    
    90   45  107 1    
    91   46   47 1    
    92   46  108 1    
    93   46  109 1    
    94   47   48 1    
    95   48  110 1    
    96   48  111 1    
    97   49   50 am   BACKBONE|DICT|INTERRES
    98   49  112 1    
    99   50   51 2    
   100   50   52 1    
   101   52   53 1    
   102   52   54 1    
   103   52  113 1    
   104   53  114 1    
   105   53  115 1    
   106   53  116 1    
   107   54   55 am   BACKBONE|DICT|INTERRES
   108   54  117 1    
   109   55   56 2    
   110   55   57 1    
   111   57   58 1    
   112   57   59 1    
   113   57  118 1    
   114   58  119 1    
   115   58  120 1    
   116   58  121 1    
   117   59   60 am   BACKBONE|DICT|INTERRES
   118   59  122 1    
   119   60   61 2    
   120   60   62 1    
   121   62   63 1    
   122   62   64 1    
   123   62  123 1    
   124   63  124 1    
   125   63  125 1    
   126   63  126 1    
   127   64   65 am   BACKBONE|DICT|INTERRES
   128   64  127 1    
   129   65   66 2    
@<TRIPOS>SUBSTRUCTURE
     1 UNK         1 GROUP             0       ****    0 ROOT    
