@<TRIPOS>MOLECULE
3R135
127   129    1
SMALL
USER_CHARGES


@<TRIPOS>ATOM
      1 CA        -85.9097   27.0397  -72.4090 C.3       0 UNK        -0.1998 
      2 C         -84.9490   27.2961  -73.5603 C.2       0 UNK         0.4909 
      3 O         -85.3760   27.7404  -74.6263 O.2       0 UNK        -0.5240 
      4 N         -83.6538   27.0185  -73.3549 N.am      1 UNK        -0.4739 
      5 CA        -82.5934   27.1923  -74.3586 C.3       1 UNK         0.0864 
      6 C6        -81.1927   27.2512  -73.6892 C.3       11 UNK        -0.0881 
      7 S7        -80.0385   28.3249  -74.6098 S.3       11 UNK        -0.2682 
      8 C8        -79.8818   29.7707  -73.5081 C.3       11 UNK         0.0289 
      9 C9        -78.6226   29.7140  -72.6498 C.ar      11 UNK        -0.0687 
     10 C10       -78.4156   28.6585  -71.7553 C.ar      11 UNK        -0.0823 
     11 C11       -77.2546   28.6023  -70.9787 C.ar      11 UNK        -0.0830 
     12 C12       -76.3217   29.6363  -71.0613 C.ar      11 UNK        -0.1021 
     13 C13       -76.5077   30.6920  -71.9561 C.ar      11 UNK        -0.0753 
     14 C14       -77.6595   30.7254  -72.7487 C.ar      11 UNK        -0.0933 
     15 C15       -75.4587   31.7889  -72.0678 C.3       11 UNK         0.0166 
     16 S16       -74.1186   31.3259  -73.2112 S.3       11 UNK        -0.2615 
     17 C17       -73.2521   30.0288  -72.2568 C.3       11 UNK        -0.0865 
     18 CA        -71.7628   29.8688  -72.6560 C.3       10 UNK         0.0862 
     19 C         -71.0226   28.8504  -71.7376 C.2       10 UNK         0.5551 
     20 N         -70.2889   27.8749  -72.2630 N.am      10 UNK        -0.7319 
     21 O         -71.1012   28.9581  -70.5162 O.2       10 UNK        -0.5018 
     22 N         -71.6143   29.5861  -74.0904 N.am      10 UNK        -0.4509 
     23 C         -70.5846   29.9909  -74.8419 C.2       10 UNK         0.4899 
     24 O         -69.6638   30.6955  -74.4239 O.2       10 UNK        -0.4839 
     25 CA        -70.5900   29.5162  -76.3058 C.3       9 UNK         0.0222 
     26 CB        -69.2392   29.7391  -77.0192 C.3       9 UNK        -0.1966 
     27 N         -71.0340   28.1251  -76.4543 N.am      9 UNK        -0.4218 
     28 C         -70.4660   27.0227  -75.9378 C.2       9 UNK         0.5020 
     29 O         -69.4851   27.0568  -75.1927 O.2       9 UNK        -0.5274 
     30 CA        -71.0879   25.6500  -76.2823 C.3       8 UNK         0.0270 
     31 CB        -71.2411   24.7758  -75.0242 C.3       8 UNK        -0.1976 
     32 N         -72.3879   25.7352  -76.9510 N.am      8 UNK        -0.4313 
     33 C         -72.6026   26.0749  -78.2285 C.2       8 UNK         0.5041 
     34 O         -71.7038   26.2631  -79.0480 O.2       8 UNK        -0.5577 
     35 CA        -74.0661   26.3230  -78.6368 C.3       7 UNK         0.0284 
     36 CB        -74.7050   25.0427  -79.1982 C.3       7 UNK        -0.1958 
     37 N         -74.8825   26.8535  -77.5359 N.am      7 UNK        -0.4454 
     38 C         -74.7023   28.0547  -76.9644 C.2       7 UNK         0.5089 
     39 O         -73.8381   28.8546  -77.3225 O.2       7 UNK        -0.5125 
     40 CA        -75.6139   28.4150  -75.7789 C.3       6 UNK         0.0408 
     41 CB        -76.8942   29.0998  -76.2757 C.3       6 UNK        -0.1791 
     42 N         -75.9525   27.2571  -74.9447 N.am      6 UNK        -0.4762 
     43 C         -75.0817   26.6607  -74.1152 C.2       6 UNK         0.5007 
     44 O         -73.9219   27.0460  -73.9594 O.2       6 UNK        -0.5032 
     45 CA        -75.5590   25.3694  -73.4104 C.3       5 UNK         0.0783 
     46 C46       -76.5066   25.6415  -72.2165 C.3       11 UNK        -0.0857 
     47 S47       -75.6712   26.3436  -70.7560 S.3       11 UNK        -0.2512 
     48 C48       -76.9812   27.4129  -70.0714 C.3       11 UNK         0.0225 
     49 N         -76.1893   24.4277  -74.3397 N.am      5 UNK        -0.4615 
     50 C         -75.6387   23.9003  -75.4390 C.2       4 UNK         0.5053 
     51 O         -74.4972   24.1682  -75.8089 O.2       4 UNK        -0.5105 
     52 CA        -76.4891   22.9167  -76.2738 C.3       4 UNK         0.0263 
     53 CB        -75.6603   21.6932  -76.7052 C.3       4 UNK        -0.1981 
     54 N         -77.7107   22.4465  -75.6071 N.am      4 UNK        -0.4224 
     55 C         -78.8290   23.1618  -75.4311 C.2       3 UNK         0.4895 
     56 O         -78.9517   24.3356  -75.7859 O.2       3 UNK        -0.5091 
     57 CA        -79.9534   22.4670  -74.6458 C.3       3 UNK         0.0250 
     58 CB        -79.6538   22.5131  -73.1369 C.3       3 UNK        -0.1996 
     59 N         -81.2520   23.0962  -74.8811 N.am      3 UNK        -0.4254 
     60 C         -81.9844   22.9736  -75.9967 C.2       2 UNK         0.5004 
     61 O         -81.6799   22.2443  -76.9416 O.2       2 UNK        -0.5226 
     62 CA        -83.2871   23.7924  -76.0622 C.3       2 UNK         0.0269 
     63 CB        -84.4946   22.9149  -75.6935 C.3       2 UNK        -0.1926 
     64 N         -83.2577   24.9627  -75.1783 N.am      2 UNK        -0.4687 
     65 C         -82.6428   26.1188  -75.4720 C.2       1 UNK         0.5165 
     66 O         -82.1286   26.3498  -76.5670 O.2       1 UNK        -0.5079 
     67 H67       -86.6673   26.3154  -72.7068 H         1 UNK         0.0900 
     68 H68       -85.3978   26.6525  -71.5282 H         1 UNK         0.0900 
     69 H69       -86.4136   27.9642  -72.1285 H         1 UNK         0.0900 
     70 H70       -83.3611   26.6628  -72.4555 H         1 UNK         0.2959 
     71 H71       -82.7812   28.1519  -74.8470 H         1 UNK         0.1079 
     72 H72       -81.2776   27.6306  -72.6704 H         1 UNK         0.0837 
     73 H73       -80.7484   26.2585  -73.5899 H         1 UNK         0.0837 
     74 H74       -79.8700   30.6641  -74.1341 H         1 UNK         0.0685 
     75 H75       -80.7601   29.8670  -72.8687 H         1 UNK         0.0685 
     76 H76       -79.1454   27.8652  -71.6838 H         1 UNK         0.1434 
     77 H77       -75.4325   29.5967  -70.4484 H         1 UNK         0.1329 
     78 H78       -77.8037   31.5411  -73.4439 H         1 UNK         0.1335 
     79 H79       -75.0445   32.0201  -71.0853 H         1 UNK         0.0680 
     80 H80       -75.9202   32.7103  -72.4260 H         1 UNK         0.0680 
     81 H81       -73.7874   29.0865  -72.3789 H         1 UNK         0.1032 
     82 H82       -73.3191   30.2832  -71.1979 H         1 UNK         0.1032 
     83 H83       -71.2861   30.8296  -72.4525 H         1 UNK         0.0461 
     84 H84       -70.1781   27.7858  -73.2648 H         1 UNK         0.3453 
     85 H85       -69.8147   27.2333  -71.6483 H         1 UNK         0.3453 
     86 H86       -72.3162   28.9817  -74.4951 H         1 UNK         0.2984 
     87 H87       -71.3351   30.1269  -76.8176 H         1 UNK         0.0554 
     88 H88       -68.9683   30.7956  -77.0231 H         1 UNK         0.0847 
     89 H89       -69.2809   29.4132  -78.0584 H         1 UNK         0.0847 
     90 H90       -68.4283   29.1982  -76.5301 H         1 UNK         0.0847 
     91 H91       -71.8752   28.0086  -77.0072 H         1 UNK         0.3141 
     92 H92       -70.3917   25.1498  -76.9583 H         1 UNK         0.0743 
     93 H93       -70.2786   24.6058  -74.5401 H         1 UNK         0.0784 
     94 H94       -71.8985   25.2418  -74.2895 H         1 UNK         0.0784 
     95 H95       -71.6549   23.7972  -75.2689 H         1 UNK         0.0784 
     96 H96       -73.1985   25.5056  -76.3814 H         1 UNK         0.3213 
     97 H97       -74.0602   27.0731  -79.4308 H         1 UNK         0.0855 
     98 H98       -74.6985   24.2315  -78.4714 H         1 UNK         0.0814 
     99 H99       -74.1582   24.6920  -80.0746 H         1 UNK         0.0814 
    100 H100      -75.7362   25.2125  -79.5082 H         1 UNK         0.0814 
    101 H101      -75.5965   26.2486  -77.1594 H         1 UNK         0.3105 
    102 H102      -75.0742   29.1343  -75.1593 H         1 UNK         0.0547 
    103 H103      -77.4622   29.5123  -75.4436 H         1 UNK         0.0837 
    104 H104      -76.6609   29.9308  -76.9428 H         1 UNK         0.0837 
    105 H105      -77.5416   28.4123  -76.8212 H         1 UNK         0.0837 
    106 H106      -76.8875   26.8828  -75.0279 H         1 UNK         0.3020 
    107 H107      -74.6640   24.8718  -73.0295 H         1 UNK         0.1245 
    108 H108      -76.9609   24.7067  -71.8833 H         1 UNK         0.0781 
    109 H109      -77.3376   26.2733  -72.5298 H         1 UNK         0.0781 
    110 H110      -76.6704   27.7708  -69.0888 H         1 UNK         0.0836 
    111 H111      -77.8859   26.8242  -69.9112 H         1 UNK         0.0836 
    112 H112      -77.1466   24.1801  -74.1412 H         1 UNK         0.3022 
    113 H113      -76.7861   23.4540  -77.1768 H         1 UNK         0.0747 
    114 H114      -76.2390   21.0267  -77.3449 H         1 UNK         0.0793 
    115 H115      -74.7775   21.9910  -77.2727 H         1 UNK         0.0793 
    116 H116      -75.3139   21.1185  -75.8453 H         1 UNK         0.0793 
    117 H117      -77.6819   21.5027  -75.2470 H         1 UNK         0.3047 
    118 H118      -80.0105   21.4242  -74.9663 H         1 UNK         0.0822 
    119 H119      -78.7112   22.0158  -72.9038 H         1 UNK         0.0807 
    120 H120      -80.4308   22.0065  -72.5638 H         1 UNK         0.0807 
    121 H121      -79.5816   23.5376  -72.7688 H         1 UNK         0.0807 
    122 H122      -81.5752   23.7404  -74.1763 H         1 UNK         0.2946 
    123 H123      -83.4099   24.1288  -77.0946 H         1 UNK         0.1144 
    124 H124      -85.4300   23.4663  -75.7913 H         1 UNK         0.0793 
    125 H125      -84.4284   22.5428  -74.6703 H         1 UNK         0.0793 
    126 H126      -84.5613   22.0475  -76.3519 H         1 UNK         0.0793 
    127 H127      -83.6931   24.8685  -74.2720 H         1 UNK         0.2896 
@<TRIPOS>BOND
     1    1    2 1    
     2    1   67 1    
     3    1   68 1    
     4    1   69 1    
     5    2    3 2    
     6    2    4 am   BACKBONE|DICT|INTERRES
     7    4    5 1    
     8    4   70 1    
     9    5    6 1    
    10    5   65 1    
    11    5   71 1    
    12    6    7 1    
    13    6   72 1    
    14    6   73 1    
    15    7    8 1    
    16    8    9 1    
    17    8   74 1    
    18    8   75 1    
    19    9   10 ar   
    20    9   14 ar   
    21   10   11 ar   
    22   10   76 1    
    23   11   12 ar   
    24   11   48 1    
    25   12   13 ar   
    26   12   77 1    
    27   13   14 ar   
    28   13   15 1    
    29   14   78 1    
    30   15   16 1    
    31   15   79 1    
    32   15   80 1    
    33   16   17 1    
    34   17   18 1    
    35   17   81 1    
    36   17   82 1    
    37   18   19 1    
    38   18   22 1    
    39   18   83 1    
    40   19   20 am   BACKBONE|DICT|INTERRES
    41   19   21 2    
    42   20   84 1    
    43   20   85 1    
    44   22   23 am   BACKBONE|DICT|INTERRES
    45   22   86 1    
    46   23   24 2    
    47   23   25 1    
    48   25   26 1    
    49   25   27 1    
    50   25   87 1    
    51   26   88 1    
    52   26   89 1    
    53   26   90 1    
    54   27   28 am   BACKBONE|DICT|INTERRES
    55   27   91 1    
    56   28   29 2    
    57   28   30 1    
    58   30   31 1    
    59   30   32 1    
    60   30   92 1    
    61   31   93 1    
    62   31   94 1    
    63   31   95 1    
    64   32   33 am   BACKBONE|DICT|INTERRES
    65   32   96 1    
    66   33   34 2    
    67   33   35 1    
    68   35   36 1    
    69   35   37 1    
    70   35   97 1    
    71   36   98 1    
    72   36   99 1    
    73   36  100 1    
    74   37   38 am   BACKBONE|DICT|INTERRES
    75   37  101 1    
    76   38   39 2    
    77   38   40 1    
    78   40   41 1    
    79   40   42 1    
    80   40  102 1    
    81   41  103 1    
    82   41  104 1    
    83   41  105 1    
    84   42   43 am   BACKBONE|DICT|INTERRES
    85   42  106 1    
    86   43   44 2    
    87   43   45 1    
    88   45   46 1    
    89   45   49 1    
    90   45  107 1    
    91   46   47 1    
    92   46  108 1    
    93   46  109 1    
    94   47   48 1    
    95   48  110 1    
    96   48  111 1    
    97   49   50 am   BACKBONE|DICT|INTERRES
    98   49  112 1    
    99   50   51 2    
   100   50   52 1    
   101   52   53 1    
   102   52   54 1    
   103   52  113 1    
   104   53  114 1    
   105   53  115 1    
   106   53  116 1    
   107   54   55 am   BACKBONE|DICT|INTERRES
   108   54  117 1    
   109   55   56 2    
   110   55   57 1    
   111   57   58 1    
   112   57   59 1    
   113   57  118 1    
   114   58  119 1    
   115   58  120 1    
   116   58  121 1    
   117   59   60 am   BACKBONE|DICT|INTERRES
   118   59  122 1    
   119   60   61 2    
   120   60   62 1    
   121   62   63 1    
   122   62   64 1    
   123   62  123 1    
   124   63  124 1    
   125   63  125 1    
   126   63  126 1    
   127   64   65 am   BACKBONE|DICT|INTERRES
   128   64  127 1    
   129   65   66 2    
@<TRIPOS>SUBSTRUCTURE
     1 UNK         1 GROUP             0       ****    0 ROOT    
