@<TRIPOS>MOLECULE
3R135
127   129    1
SMALL
USER_CHARGES


@<TRIPOS>ATOM
      1 CA        -78.3114   30.6895  -74.2176 C.3       0 UNK        -0.1998 
      2 C         -78.5940   29.2150  -73.9764 C.2       0 UNK         0.4909 
      3 O         -77.8149   28.3674  -74.4027 O.2       0 UNK        -0.5240 
      4 N         -79.7067   28.8972  -73.3029 N.am      1 UNK        -0.4739 
      5 CA        -80.0659   27.5299  -72.8971 C.3       1 UNK         0.0864 
      6 C6        -81.1042   27.5056  -71.7441 C.3       11 UNK        -0.0881 
      7 S7        -80.7717   28.6735  -70.3777 S.3       11 UNK        -0.2682 
      8 C8        -79.4482   27.8412  -69.4428 C.3       11 UNK         0.0289 
      9 C9        -78.0672   28.1920  -69.9811 C.ar      11 UNK        -0.0687 
     10 C10       -77.2963   27.2320  -70.6424 C.ar      11 UNK        -0.0823 
     11 C11       -76.0276   27.5520  -71.1467 C.ar      11 UNK        -0.0830 
     12 C12       -75.5299   28.8452  -70.9505 C.ar      11 UNK        -0.1021 
     13 C13       -76.2814   29.8102  -70.2748 C.ar      11 UNK        -0.0753 
     14 C14       -77.5523   29.4784  -69.7984 C.ar      11 UNK        -0.0933 
     15 C15       -75.7135   31.2007  -70.0306 C.3       11 UNK         0.0166 
     16 S16       -75.8724   32.2688  -71.4980 S.3       11 UNK        -0.2615 
     17 C17       -74.1328   32.5000  -72.0122 C.3       11 UNK        -0.0865 
     18 CA        -73.9391   32.3609  -73.5435 C.3       10 UNK         0.0862 
     19 C         -72.5030   32.7909  -73.9528 C.2       10 UNK         0.5551 
     20 N         -72.3118   34.0567  -74.2982 N.am      10 UNK        -0.7319 
     21 O         -71.5586   32.0045  -73.9144 O.2       10 UNK        -0.5018 
     22 N         -74.2728   31.0055  -73.9954 N.am      10 UNK        -0.4509 
     23 C         -74.3697   30.6056  -75.2660 C.2       10 UNK         0.4899 
     24 O         -74.2290   31.3462  -76.2410 O.2       10 UNK        -0.4839 
     25 CA        -74.6838   29.1155  -75.4692 C.3       9 UNK         0.0222 
     26 CB        -75.4914   28.8623  -76.7534 C.3       9 UNK        -0.1966 
     27 N         -73.4795   28.2852  -75.4794 N.am      9 UNK        -0.4218 
     28 C         -72.7239   28.0104  -74.4069 C.2       9 UNK         0.5020 
     29 O         -72.9229   28.4904  -73.2896 O.2       9 UNK        -0.5274 
     30 CA        -71.5836   27.0006  -74.6068 C.3       8 UNK         0.0270 
     31 CB        -71.0764   26.3981  -73.2804 C.3       8 UNK        -0.1976 
     32 N         -71.9964   25.9234  -75.5096 N.am      8 UNK        -0.4313 
     33 C         -71.1775   25.2939  -76.3633 C.2       8 UNK         0.5041 
     34 O         -69.9843   25.5741  -76.4906 O.2       8 UNK        -0.5577 
     35 CA        -71.7584   24.1505  -77.2191 C.3       7 UNK         0.0284 
     36 CB        -71.3519   22.7877  -76.6341 C.3       7 UNK        -0.1958 
     37 N         -73.2141   24.1846  -77.3737 N.am      7 UNK        -0.4454 
     38 C         -73.8995   25.1280  -78.0325 C.2       7 UNK         0.5089 
     39 O         -73.3744   26.0810  -78.6086 O.2       7 UNK        -0.5125 
     40 CA        -75.4343   24.9997  -78.0316 C.3       6 UNK         0.0408 
     41 CB        -75.8901   24.2371  -79.2850 C.3       6 UNK        -0.1791 
     42 N         -76.0268   24.3728  -76.8389 N.am      6 UNK        -0.4762 
     43 C         -75.7997   24.7067  -75.5555 C.2       6 UNK         0.5007 
     44 O         -74.9387   25.5176  -75.2140 O.2       6 UNK        -0.5032 
     45 CA        -76.6383   23.9894  -74.4754 C.3       5 UNK         0.0783 
     46 C46       -76.9953   24.8932  -73.2642 C.3       11 UNK        -0.0857 
     47 S47       -75.7343   24.8239  -71.9461 S.3       11 UNK        -0.2512 
     48 C48       -75.1538   26.5551  -71.9131 C.3       11 UNK         0.0225 
     49 N         -77.8414   23.3814  -75.0517 N.am      5 UNK        -0.4615 
     50 C         -78.1817   22.0920  -74.9176 C.2       4 UNK         0.5053 
     51 O         -77.4958   21.2653  -74.3157 O.2       4 UNK        -0.5105 
     52 CA        -79.5070   21.6242  -75.5492 C.3       4 UNK         0.0263 
     53 CB        -80.5894   21.4806  -74.4667 C.3       4 UNK        -0.1981 
     54 N         -80.0114   22.5027  -76.6049 N.am      4 UNK        -0.4224 
     55 C         -79.4223   22.7133  -77.7901 C.2       3 UNK         0.4895 
     56 O         -78.3921   22.1463  -78.1535 O.2       3 UNK        -0.5091 
     57 CA        -80.0707   23.7653  -78.7095 C.3       3 UNK         0.0250 
     58 CB        -80.9750   23.0833  -79.7485 C.3       3 UNK        -0.1996 
     59 N         -80.8397   24.7946  -77.9981 N.am      3 UNK        -0.4254 
     60 C         -80.3457   25.6356  -77.0769 C.2       2 UNK         0.5004 
     61 O         -79.1633   25.6305  -76.7253 O.2       2 UNK        -0.5226 
     62 CA        -81.3431   26.6401  -76.4598 C.3       2 UNK         0.0269 
     63 CB        -82.7503   26.0367  -76.2421 C.3       2 UNK        -0.1926 
     64 N         -80.8599   27.2513  -75.2148 N.am      2 UNK        -0.4687 
     65 C         -80.5390   26.6353  -74.0655 C.2       1 UNK         0.5165 
     66 O         -80.6262   25.4185  -73.8887 O.2       1 UNK        -0.5079 
     67 H67       -78.3218   30.9053  -75.2855 H         1 UNK         0.0900 
     68 H68       -79.0446   31.3309  -73.7292 H         1 UNK         0.0900 
     69 H69       -77.3267   30.9456  -73.8283 H         1 UNK         0.0900 
     70 H70       -80.3120   29.6275  -72.9553 H         1 UNK         0.2959 
     71 H71       -79.1566   27.0567  -72.5302 H         1 UNK         0.1079 
     72 H72       -81.1885   26.4987  -71.3304 H         1 UNK         0.0837 
     73 H73       -82.0958   27.7503  -72.1304 H         1 UNK         0.0837 
     74 H74       -79.5087   28.1561  -68.4001 H         1 UNK         0.0685 
     75 H75       -79.6128   26.7627  -69.4437 H         1 UNK         0.0685 
     76 H76       -77.7025   26.2396  -70.7680 H         1 UNK         0.1434 
     77 H77       -74.5472   29.1022  -71.3212 H         1 UNK         0.1329 
     78 H78       -78.1440   30.2202  -69.2794 H         1 UNK         0.1335 
     79 H79       -76.2407   31.6788  -69.2036 H         1 UNK         0.0680 
     80 H80       -74.6745   31.1235  -69.7086 H         1 UNK         0.0680 
     81 H81       -73.4827   31.7941  -71.4924 H         1 UNK         0.1032 
     82 H82       -73.8265   33.4930  -71.6769 H         1 UNK         0.1032 
     83 H83       -74.6407   33.0379  -74.0354 H         1 UNK         0.0461 
     84 H84       -71.3845   34.3610  -74.5511 H         1 UNK         0.3453 
     85 H85       -73.0775   34.7123  -74.3229 H         1 UNK         0.3453 
     86 H86       -74.2983   30.2917  -73.2800 H         1 UNK         0.2984 
     87 H87       -75.2989   28.7921  -74.6281 H         1 UNK         0.0554 
     88 H88       -75.8845   27.8470  -76.7632 H         1 UNK         0.0847 
     89 H89       -74.8935   29.0111  -77.6532 H         1 UNK         0.0847 
     90 H90       -76.3507   29.5317  -76.8120 H         1 UNK         0.0847 
     91 H91       -73.2335   27.8582  -76.3610 H         1 UNK         0.3141 
     92 H92       -70.7662   27.5640  -75.0617 H         1 UNK         0.0743 
     93 H93       -71.8638   25.8444  -72.7676 H         1 UNK         0.0784 
     94 H94       -70.2408   25.7180  -73.4461 H         1 UNK         0.0784 
     95 H95       -70.7266   27.1773  -72.6019 H         1 UNK         0.0784 
     96 H96       -72.9799   25.6604  -75.4667 H         1 UNK         0.3213 
     97 H97       -71.3179   24.2401  -78.2146 H         1 UNK         0.0855 
     98 H98       -71.7785   22.6307  -75.6425 H         1 UNK         0.0814 
     99 H99       -70.2678   22.7122  -76.5370 H         1 UNK         0.0814 
    100 H100      -71.6745   21.9667  -77.2747 H         1 UNK         0.0814 
    101 H101      -73.7398   23.4491  -76.9247 H         1 UNK         0.3105 
    102 H102      -75.8409   26.0092  -78.0949 H         1 UNK         0.0547 
    103 H103      -75.4502   24.6635  -80.1879 H         1 UNK         0.0837 
    104 H104      -75.6026   23.1857  -79.2461 H         1 UNK         0.0837 
    105 H105      -76.9703   24.2847  -79.4063 H         1 UNK         0.0837 
    106 H106      -76.7356   23.6735  -77.0161 H         1 UNK         0.3020 
    107 H107      -75.9824   23.1919  -74.1193 H         1 UNK         0.1245 
    108 H108      -77.9294   24.5612  -72.8076 H         1 UNK         0.0781 
    109 H109      -77.1775   25.9231  -73.5756 H         1 UNK         0.0781 
    110 H110      -75.0493   26.9059  -72.9394 H         1 UNK         0.0836 
    111 H111      -74.1516   26.5638  -71.4821 H         1 UNK         0.0836 
    112 H112      -78.4519   24.0143  -75.5606 H         1 UNK         0.3022 
    113 H113      -79.3276   20.6414  -75.9902 H         1 UNK         0.0747 
    114 H114      -81.5124   21.0712  -74.8778 H         1 UNK         0.0793 
    115 H115      -80.2630   20.8058  -73.6740 H         1 UNK         0.0793 
    116 H116      -80.8229   22.4400  -74.0020 H         1 UNK         0.0793 
    117 H117      -80.8456   23.0295  -76.3915 H         1 UNK         0.3047 
    118 H118      -79.2664   24.2747  -79.2418 H         1 UNK         0.0822 
    119 H119      -81.3659   23.8020  -80.4691 H         1 UNK         0.0807 
    120 H120      -81.8222   22.5807  -79.2800 H         1 UNK         0.0807 
    121 H121      -80.4219   22.3312  -80.3133 H         1 UNK         0.0807 
    122 H122      -81.8184   24.8667  -78.2366 H         1 UNK         0.2946 
    123 H123      -81.4336   27.4541  -77.1809 H         1 UNK         0.1144 
    124 H124      -83.4087   26.7463  -75.7406 H         1 UNK         0.0793 
    125 H125      -82.7155   25.1325  -75.6329 H         1 UNK         0.0793 
    126 H126      -83.2310   25.7805  -77.1865 H         1 UNK         0.0793 
    127 H127      -80.7025   28.2485  -75.2493 H         1 UNK         0.2896 
@<TRIPOS>BOND
     1    1    2 1    
     2    1   67 1    
     3    1   68 1    
     4    1   69 1    
     5    2    3 2    
     6    2    4 am   BACKBONE|DICT|INTERRES
     7    4    5 1    
     8    4   70 1    
     9    5    6 1    
    10    5   65 1    
    11    5   71 1    
    12    6    7 1    
    13    6   72 1    
    14    6   73 1    
    15    7    8 1    
    16    8    9 1    
    17    8   74 1    
    18    8   75 1    
    19    9   10 ar   
    20    9   14 ar   
    21   10   11 ar   
    22   10   76 1    
    23   11   12 ar   
    24   11   48 1    
    25   12   13 ar   
    26   12   77 1    
    27   13   14 ar   
    28   13   15 1    
    29   14   78 1    
    30   15   16 1    
    31   15   79 1    
    32   15   80 1    
    33   16   17 1    
    34   17   18 1    
    35   17   81 1    
    36   17   82 1    
    37   18   19 1    
    38   18   22 1    
    39   18   83 1    
    40   19   20 am   BACKBONE|DICT|INTERRES
    41   19   21 2    
    42   20   84 1    
    43   20   85 1    
    44   22   23 am   BACKBONE|DICT|INTERRES
    45   22   86 1    
    46   23   24 2    
    47   23   25 1    
    48   25   26 1    
    49   25   27 1    
    50   25   87 1    
    51   26   88 1    
    52   26   89 1    
    53   26   90 1    
    54   27   28 am   BACKBONE|DICT|INTERRES
    55   27   91 1    
    56   28   29 2    
    57   28   30 1    
    58   30   31 1    
    59   30   32 1    
    60   30   92 1    
    61   31   93 1    
    62   31   94 1    
    63   31   95 1    
    64   32   33 am   BACKBONE|DICT|INTERRES
    65   32   96 1    
    66   33   34 2    
    67   33   35 1    
    68   35   36 1    
    69   35   37 1    
    70   35   97 1    
    71   36   98 1    
    72   36   99 1    
    73   36  100 1    
    74   37   38 am   BACKBONE|DICT|INTERRES
    75   37  101 1    
    76   38   39 2    
    77   38   40 1    
    78   40   41 1    
    79   40   42 1    
    80   40  102 1    
    81   41  103 1    
    82   41  104 1    
    83   41  105 1    
    84   42   43 am   BACKBONE|DICT|INTERRES
    85   42  106 1    
    86   43   44 2    
    87   43   45 1    
    88   45   46 1    
    89   45   49 1    
    90   45  107 1    
    91   46   47 1    
    92   46  108 1    
    93   46  109 1    
    94   47   48 1    
    95   48  110 1    
    96   48  111 1    
    97   49   50 am   BACKBONE|DICT|INTERRES
    98   49  112 1    
    99   50   51 2    
   100   50   52 1    
   101   52   53 1    
   102   52   54 1    
   103   52  113 1    
   104   53  114 1    
   105   53  115 1    
   106   53  116 1    
   107   54   55 am   BACKBONE|DICT|INTERRES
   108   54  117 1    
   109   55   56 2    
   110   55   57 1    
   111   57   58 1    
   112   57   59 1    
   113   57  118 1    
   114   58  119 1    
   115   58  120 1    
   116   58  121 1    
   117   59   60 am   BACKBONE|DICT|INTERRES
   118   59  122 1    
   119   60   61 2    
   120   60   62 1    
   121   62   63 1    
   122   62   64 1    
   123   62  123 1    
   124   63  124 1    
   125   63  125 1    
   126   63  126 1    
   127   64   65 am   BACKBONE|DICT|INTERRES
   128   64  127 1    
   129   65   66 2    
@<TRIPOS>SUBSTRUCTURE
     1 UNK         1 GROUP             0       ****    0 ROOT    
