@<TRIPOS>MOLECULE
3R135
127   129    1
SMALL
USER_CHARGES


@<TRIPOS>ATOM
      1 CA        -81.2784   26.8390  -69.8106 C.3       0 UNK        -0.1998 
      2 C         -80.2489   25.8934  -70.4238 C.2       0 UNK         0.4909 
      3 O         -79.2933   25.5288  -69.7434 O.2       0 UNK        -0.5240 
      4 N         -80.3800   25.4715  -71.6867 N.am      1 UNK        -0.4739 
      5 CA        -81.4863   25.6950  -72.6157 C.3       1 UNK         0.0864 
      6 C6        -81.5412   27.1383  -73.2022 C.3       11 UNK        -0.0881 
      7 S7        -80.2409   27.5683  -74.4201 S.3       11 UNK        -0.2682 
      8 C8        -80.0306   29.3639  -74.1200 C.3       11 UNK         0.0289 
      9 C9        -78.8192   29.7113  -73.2556 C.ar      11 UNK        -0.0687 
     10 C10       -78.4199   28.8819  -72.2053 C.ar      11 UNK        -0.0823 
     11 C11       -77.2781   29.1668  -71.4547 C.ar      11 UNK        -0.0830 
     12 C12       -76.5691   30.3442  -71.7085 C.ar      11 UNK        -0.1021 
     13 C13       -76.9920   31.2236  -72.7112 C.ar      11 UNK        -0.0753 
     14 C14       -78.1033   30.8901  -73.4947 C.ar      11 UNK        -0.0933 
     15 C15       -76.2924   32.5638  -72.9042 C.3       11 UNK         0.0166 
     16 S16       -75.2228   32.6109  -74.3755 S.3       11 UNK        -0.2615 
     17 C17       -73.7762   31.6400  -73.8305 C.3       11 UNK        -0.0865 
     18 CA        -73.3009   30.6619  -74.9398 C.3       10 UNK         0.0862 
     19 C         -72.3990   31.3112  -76.0289 C.2       10 UNK         0.5551 
     20 N         -72.2967   30.6824  -77.1910 N.am      10 UNK        -0.7319 
     21 O         -71.7942   32.3637  -75.8344 O.2       10 UNK        -0.5018 
     22 N         -72.7360   29.4223  -74.3887 N.am      10 UNK        -0.4509 
     23 C         -71.5705   29.3048  -73.7398 C.2       10 UNK         0.4899 
     24 O         -70.8089   30.2455  -73.5149 O.2       10 UNK        -0.4839 
     25 CA        -71.1828   27.9104  -73.2295 C.3       9 UNK         0.0222 
     26 CB        -71.7144   27.7067  -71.8008 C.3       9 UNK        -0.1966 
     27 N         -71.6841   26.8279  -74.0832 N.am      9 UNK        -0.4218 
     28 C         -70.9149   25.8831  -74.6397 C.2       9 UNK         0.5020 
     29 O         -69.6837   25.8774  -74.5854 O.2       9 UNK        -0.5274 
     30 CA        -71.6273   24.7111  -75.3347 C.3       8 UNK         0.0270 
     31 CB        -72.1288   23.6975  -74.2930 C.3       8 UNK        -0.1976 
     32 N         -72.7322   25.1046  -76.2119 N.am      8 UNK        -0.4313 
     33 C         -72.5717   25.6889  -77.4076 C.2       8 UNK         0.5041 
     34 O         -71.4814   26.0454  -77.8563 O.2       8 UNK        -0.5577 
     35 CA        -73.8340   25.8780  -78.2664 C.3       7 UNK         0.0284 
     36 CB        -74.2635   24.5488  -78.9090 C.3       7 UNK        -0.1958 
     37 N         -74.9491   26.4381  -77.5050 N.am      7 UNK        -0.4454 
     38 C         -75.0157   27.7163  -77.1109 C.2       7 UNK         0.5089 
     39 O         -74.1833   28.5683  -77.4184 O.2       7 UNK        -0.5125 
     40 CA        -76.1902   28.1036  -76.1925 C.3       6 UNK         0.0408 
     41 CB        -77.4404   28.4088  -77.0289 C.3       6 UNK        -0.1791 
     42 N         -76.4789   27.0867  -75.1751 N.am      6 UNK        -0.4762 
     43 C         -75.5978   26.6859  -74.2425 C.2       6 UNK         0.5007 
     44 O         -74.4664   27.1602  -74.1330 O.2       6 UNK        -0.5032 
     45 CA        -75.9951   25.4903  -73.3486 C.3       5 UNK         0.0783 
     46 C46       -76.6727   25.8964  -72.0195 C.3       11 UNK        -0.0857 
     47 S47       -75.6451   26.9655  -70.9473 S.3       11 UNK        -0.2512 
     48 C48       -76.8346   28.2140  -70.3530 C.3       11 UNK         0.0225 
     49 N         -76.8073   24.5206  -74.0901 N.am      5 UNK        -0.4615 
     50 C         -76.3365   23.7677  -75.0927 C.2       4 UNK         0.5053 
     51 O         -75.1666   23.7878  -75.4733 O.2       4 UNK        -0.5105 
     52 CA        -77.3596   22.8959  -75.8275 C.3       4 UNK         0.0263 
     53 CB        -77.8144   21.7139  -74.9561 C.3       4 UNK        -0.1981 
     54 N         -78.5227   23.6752  -76.2522 N.am      4 UNK        -0.4224 
     55 C         -78.5131   24.5804  -77.2419 C.2       3 UNK         0.4895 
     56 O         -77.4905   24.8880  -77.8545 O.2       3 UNK        -0.5091 
     57 CA        -79.8347   25.2941  -77.6037 C.3       3 UNK         0.0250 
     58 CB        -80.1412   25.1946  -79.1119 C.3       3 UNK        -0.1996 
     59 N         -80.9933   24.8973  -76.7935 N.am      3 UNK        -0.4254 
     60 C         -81.6083   23.7056  -76.7322 C.2       2 UNK         0.5004 
     61 O         -81.3451   22.7577  -77.4726 O.2       2 UNK        -0.5226 
     62 CA        -82.6598   23.5340  -75.6131 C.3       2 UNK         0.0269 
     63 CB        -82.7281   22.0791  -75.1003 C.3       2 UNK        -0.1926 
     64 N         -82.4923   24.4649  -74.4816 N.am      2 UNK        -0.4687 
     65 C         -81.4095   24.6034  -73.6989 C.2       1 UNK         0.5165 
     66 O         -80.3682   23.9504  -73.8379 O.2       1 UNK        -0.5079 
     67 H67       -81.2834   26.7315  -68.7261 H         1 UNK         0.0900 
     68 H68       -82.2916   26.6448  -70.1562 H         1 UNK         0.0900 
     69 H69       -81.0221   27.8730  -70.0386 H         1 UNK         0.0900 
     70 H70       -79.7106   24.8081  -72.0565 H         1 UNK         0.2959 
     71 H71       -82.4154   25.5018  -72.0765 H         1 UNK         0.1079 
     72 H72       -81.5219   27.8669  -72.3927 H         1 UNK         0.0837 
     73 H73       -82.5031   27.2945  -73.6932 H         1 UNK         0.0837 
     74 H74       -79.9366   29.8516  -75.0911 H         1 UNK         0.0685 
     75 H75       -80.9293   29.7787  -73.6622 H         1 UNK         0.0685 
     76 H76       -78.9958   27.9988  -71.9810 H         1 UNK         0.1434 
     77 H77       -75.7039   30.5869  -71.1068 H         1 UNK         0.1329 
     78 H78       -78.4208   31.5627  -74.2798 H         1 UNK         0.1335 
     79 H79       -77.0479   33.3447  -73.0029 H         1 UNK         0.0680 
     80 H80       -75.7055   32.8262  -72.0224 H         1 UNK         0.0680 
     81 H81       -74.0576   31.0753  -72.9414 H         1 UNK         0.1032 
     82 H82       -72.9765   32.3095  -73.5091 H         1 UNK         0.1032 
     83 H83       -74.1941   30.3335  -75.4650 H         1 UNK         0.0461 
     84 H84       -72.8445   29.8401  -77.3556 H         1 UNK         0.3453 
     85 H85       -71.7200   31.0665  -77.9219 H         1 UNK         0.3453 
     86 H86       -73.3235   28.5994  -74.4829 H         1 UNK         0.2984 
     87 H87       -70.0921   27.8860  -73.1851 H         1 UNK         0.0554 
     88 H88       -71.3914   26.7503  -71.3897 H         1 UNK         0.0847 
     89 H89       -72.8043   27.7332  -71.7703 H         1 UNK         0.0847 
     90 H90       -71.3501   28.4873  -71.1315 H         1 UNK         0.0847 
     91 H91       -72.6951   26.7705  -74.1896 H         1 UNK         0.3141 
     92 H92       -70.8842   24.2023  -75.9531 H         1 UNK         0.0743 
     93 H93       -72.8910   24.1280  -73.6437 H         1 UNK         0.0784 
     94 H94       -72.5559   22.8157  -74.7711 H         1 UNK         0.0784 
     95 H95       -71.3123   23.3562  -73.6551 H         1 UNK         0.0784 
     96 H96       -73.6625   24.7871  -75.9452 H         1 UNK         0.3213 
     97 H97       -73.5862   26.5735  -79.0716 H         1 UNK         0.0855 
     98 H98       -73.4500   24.1160  -79.4927 H         1 UNK         0.0814 
     99 H99       -75.1076   24.6916  -79.5840 H         1 UNK         0.0814 
    100 H100      -74.5585   23.8116  -78.1614 H         1 UNK         0.0814 
    101 H101      -75.7100   25.8090  -77.2712 H         1 UNK         0.3105 
    102 H102      -75.9283   29.0150  -75.6558 H         1 UNK         0.0547 
    103 H103      -77.2621   29.2617  -77.6848 H         1 UNK         0.0837 
    104 H104      -77.7181   27.5709  -77.6663 H         1 UNK         0.0837 
    105 H105      -78.2927   28.6610  -76.4017 H         1 UNK         0.0837 
    106 H106      -77.3860   26.6463  -75.2068 H         1 UNK         0.3020 
    107 H107      -75.0625   24.9875  -73.0841 H         1 UNK         0.1245 
    108 H108      -76.9051   25.0004  -71.4417 H         1 UNK         0.0781 
    109 H109      -77.6320   26.3598  -72.2256 H         1 UNK         0.0781 
    110 H110      -76.3694   28.7804  -69.5450 H         1 UNK         0.0836 
    111 H111      -77.6960   27.7140  -69.9091 H         1 UNK         0.0836 
    112 H112      -77.7870   24.4531  -73.8530 H         1 UNK         0.3022 
    113 H113      -76.8746   22.4927  -76.7193 H         1 UNK         0.0747 
    114 H114      -78.4847   21.0538  -75.5070 H         1 UNK         0.0793 
    115 H115      -76.9610   21.1147  -74.6357 H         1 UNK         0.0793 
    116 H116      -78.3379   22.0441  -74.0580 H         1 UNK         0.0793 
    117 H117      -79.3840   23.5234  -75.7414 H         1 UNK         0.3047 
    118 H118      -79.6771   26.3477  -77.3735 H         1 UNK         0.0822 
    119 H119      -81.0567   25.7278  -79.3675 H         1 UNK         0.0807 
    120 H120      -80.2514   24.1601  -79.4380 H         1 UNK         0.0807 
    121 H121      -79.3363   25.6336  -79.7030 H         1 UNK         0.0807 
    122 H122      -81.2918   25.5911  -76.1213 H         1 UNK         0.2946 
    123 H123      -83.6217   23.7695  -76.0719 H         1 UNK         0.1144 
    124 H124      -82.9923   21.3903  -75.9037 H         1 UNK         0.0793 
    125 H125      -83.4828   21.9676  -74.3219 H         1 UNK         0.0793 
    126 H126      -81.7726   21.7487  -74.6910 H         1 UNK         0.0793 
    127 H127      -83.2874   25.0637  -74.3022 H         1 UNK         0.2896 
@<TRIPOS>BOND
     1    1    2 1    
     2    1   67 1    
     3    1   68 1    
     4    1   69 1    
     5    2    3 2    
     6    2    4 am   BACKBONE|DICT|INTERRES
     7    4    5 1    
     8    4   70 1    
     9    5    6 1    
    10    5   65 1    
    11    5   71 1    
    12    6    7 1    
    13    6   72 1    
    14    6   73 1    
    15    7    8 1    
    16    8    9 1    
    17    8   74 1    
    18    8   75 1    
    19    9   10 ar   
    20    9   14 ar   
    21   10   11 ar   
    22   10   76 1    
    23   11   12 ar   
    24   11   48 1    
    25   12   13 ar   
    26   12   77 1    
    27   13   14 ar   
    28   13   15 1    
    29   14   78 1    
    30   15   16 1    
    31   15   79 1    
    32   15   80 1    
    33   16   17 1    
    34   17   18 1    
    35   17   81 1    
    36   17   82 1    
    37   18   19 1    
    38   18   22 1    
    39   18   83 1    
    40   19   20 am   BACKBONE|DICT|INTERRES
    41   19   21 2    
    42   20   84 1    
    43   20   85 1    
    44   22   23 am   BACKBONE|DICT|INTERRES
    45   22   86 1    
    46   23   24 2    
    47   23   25 1    
    48   25   26 1    
    49   25   27 1    
    50   25   87 1    
    51   26   88 1    
    52   26   89 1    
    53   26   90 1    
    54   27   28 am   BACKBONE|DICT|INTERRES
    55   27   91 1    
    56   28   29 2    
    57   28   30 1    
    58   30   31 1    
    59   30   32 1    
    60   30   92 1    
    61   31   93 1    
    62   31   94 1    
    63   31   95 1    
    64   32   33 am   BACKBONE|DICT|INTERRES
    65   32   96 1    
    66   33   34 2    
    67   33   35 1    
    68   35   36 1    
    69   35   37 1    
    70   35   97 1    
    71   36   98 1    
    72   36   99 1    
    73   36  100 1    
    74   37   38 am   BACKBONE|DICT|INTERRES
    75   37  101 1    
    76   38   39 2    
    77   38   40 1    
    78   40   41 1    
    79   40   42 1    
    80   40  102 1    
    81   41  103 1    
    82   41  104 1    
    83   41  105 1    
    84   42   43 am   BACKBONE|DICT|INTERRES
    85   42  106 1    
    86   43   44 2    
    87   43   45 1    
    88   45   46 1    
    89   45   49 1    
    90   45  107 1    
    91   46   47 1    
    92   46  108 1    
    93   46  109 1    
    94   47   48 1    
    95   48  110 1    
    96   48  111 1    
    97   49   50 am   BACKBONE|DICT|INTERRES
    98   49  112 1    
    99   50   51 2    
   100   50   52 1    
   101   52   53 1    
   102   52   54 1    
   103   52  113 1    
   104   53  114 1    
   105   53  115 1    
   106   53  116 1    
   107   54   55 am   BACKBONE|DICT|INTERRES
   108   54  117 1    
   109   55   56 2    
   110   55   57 1    
   111   57   58 1    
   112   57   59 1    
   113   57  118 1    
   114   58  119 1    
   115   58  120 1    
   116   58  121 1    
   117   59   60 am   BACKBONE|DICT|INTERRES
   118   59  122 1    
   119   60   61 2    
   120   60   62 1    
   121   62   63 1    
   122   62   64 1    
   123   62  123 1    
   124   63  124 1    
   125   63  125 1    
   126   63  126 1    
   127   64   65 am   BACKBONE|DICT|INTERRES
   128   64  127 1    
   129   65   66 2    
@<TRIPOS>SUBSTRUCTURE
     1 UNK         1 GROUP             0       ****    0 ROOT    
