@<TRIPOS>MOLECULE
3R135
127   129    1
SMALL
USER_CHARGES


@<TRIPOS>ATOM
      1 CA        -78.9056   26.4405  -71.0859 C.3       0 UNK        -0.1998 
      2 C         -79.6708   26.8548  -72.3343 C.2       0 UNK         0.4909 
      3 O         -80.8822   26.6490  -72.4090 O.2       0 UNK        -0.5240 
      4 N         -78.9727   27.4484  -73.3070 N.am      1 UNK        -0.4739 
      5 CA        -79.5293   27.8897  -74.5896 C.3       1 UNK         0.0864 
      6 C6        -78.6877   29.0331  -75.2057 C.3       11 UNK        -0.0881 
      7 S7        -78.5920   30.4860  -74.1084 S.3       11 UNK        -0.2682 
      8 C8        -76.7995   30.6313  -73.8463 C.3       11 UNK         0.0289 
      9 C9        -76.2545   29.6200  -72.8461 C.ar      11 UNK        -0.0687 
     10 C10       -75.6317   28.4444  -73.2800 C.ar      11 UNK        -0.0823 
     11 C11       -74.9935   27.5975  -72.3667 C.ar      11 UNK        -0.0830 
     12 C12       -75.0056   27.9234  -71.0086 C.ar      11 UNK        -0.1021 
     13 C13       -75.6373   29.0868  -70.5611 C.ar      11 UNK        -0.0753 
     14 C14       -76.2801   29.9184  -71.4817 C.ar      11 UNK        -0.0933 
     15 C15       -75.5602   29.4784  -69.0917 C.3       11 UNK         0.0166 
     16 S16       -74.6462   31.0393  -68.8267 S.3       11 UNK        -0.2615 
     17 C17       -73.1275   30.8078  -69.8228 C.3       11 UNK        -0.0865 
     18 CA        -73.1549   31.6404  -71.1409 C.3       10 UNK         0.0862 
     19 C         -72.5084   33.0470  -70.9591 C.2       10 UNK         0.5551 
     20 N         -71.4339   33.3795  -71.6650 N.am      10 UNK        -0.7319 
     21 O         -72.9927   33.8544  -70.1703 O.2       10 UNK        -0.5018 
     22 N         -72.6390   30.8663  -72.2861 N.am      10 UNK        -0.4509 
     23 C         -72.9584   31.0990  -73.5681 C.2       10 UNK         0.4899 
     24 O         -73.7294   31.9937  -73.9188 O.2       10 UNK        -0.4839 
     25 CA        -72.3014   30.2018  -74.6407 C.3       9 UNK         0.0222 
     26 CB        -71.5573   28.9781  -74.0674 C.3       9 UNK        -0.1966 
     27 N         -73.2920   29.7360  -75.6136 N.am      9 UNK        -0.4218 
     28 C         -73.6955   30.3931  -76.7079 C.2       9 UNK         0.5020 
     29 O         -73.2089   31.4595  -77.0899 O.2       9 UNK        -0.5274 
     30 CA        -74.8134   29.7157  -77.5301 C.3       8 UNK         0.0270 
     31 CB        -75.3625   30.6220  -78.6479 C.3       8 UNK        -0.1976 
     32 N         -74.3700   28.4479  -78.1177 N.am      8 UNK        -0.4313 
     33 C         -74.2307   27.3009  -77.4438 C.2       8 UNK         0.5041 
     34 O         -74.4839   27.1841  -76.2424 O.2       8 UNK        -0.5577 
     35 CA        -73.6825   26.1003  -78.2194 C.3       7 UNK         0.0284 
     36 CB        -72.1815   26.2827  -78.5211 C.3       7 UNK        -0.1958 
     37 N         -73.8872   24.9035  -77.4083 N.am      7 UNK        -0.4454 
     38 C         -73.8661   23.6427  -77.8501 C.2       7 UNK         0.5089 
     39 O         -73.6819   23.3361  -79.0289 O.2       7 UNK        -0.5125 
     40 CA        -74.0598   22.5244  -76.8096 C.3       6 UNK         0.0408 
     41 CB        -72.6960   21.9531  -76.3883 C.3       6 UNK        -0.1791 
     42 N         -74.8004   22.9248  -75.6077 N.am      6 UNK        -0.4762 
     43 C         -76.1189   23.1597  -75.5696 C.2       6 UNK         0.5007 
     44 O         -76.8395   23.1664  -76.5720 O.2       6 UNK        -0.5032 
     45 CA        -76.7254   23.3985  -74.1737 C.3       5 UNK         0.0783 
     46 C46       -76.4250   24.8200  -73.6298 C.3       11 UNK        -0.0857 
     47 S47       -75.0436   24.8128  -72.4467 S.3       11 UNK        -0.2512 
     48 C48       -74.2108   26.3783  -72.8398 C.3       11 UNK         0.0225 
     49 N         -78.1645   23.1538  -74.2343 N.am      5 UNK        -0.4615 
     50 C         -78.8325   22.2543  -73.5040 C.2       4 UNK         0.5053 
     51 O         -78.3125   21.5484  -72.6393 O.2       4 UNK        -0.5105 
     52 CA        -80.3377   22.1024  -73.7817 C.3       4 UNK         0.0263 
     53 CB        -81.1512   23.0312  -72.8685 C.3       4 UNK        -0.1981 
     54 N         -80.6948   22.3676  -75.1755 N.am      4 UNK        -0.4224 
     55 C         -80.3892   21.5857  -76.2177 C.2       3 UNK         0.4895 
     56 O         -79.8075   20.5055  -76.1111 O.2       3 UNK        -0.5091 
     57 CA        -80.7918   22.0826  -77.6199 C.3       3 UNK         0.0250 
     58 CB        -82.2450   21.6894  -77.9518 C.3       3 UNK        -0.1996 
     59 N         -80.5484   23.5141  -77.8634 N.am      3 UNK        -0.4254 
     60 C         -81.1292   24.5776  -77.2894 C.2       2 UNK         0.5004 
     61 O         -82.0206   24.5095  -76.4395 O.2       2 UNK        -0.5226 
     62 CA        -80.6184   25.9558  -77.7404 C.3       2 UNK         0.0269 
     63 CB        -81.5680   26.5647  -78.7847 C.3       2 UNK        -0.1926 
     64 N         -80.4637   26.8942  -76.6242 N.am      2 UNK        -0.4687 
     65 C         -79.6319   26.7187  -75.5874 C.2       1 UNK         0.5165 
     66 O         -78.9235   25.7194  -75.4476 O.2       1 UNK        -0.5079 
     67 H67       -78.9194   25.3559  -70.9807 H         1 UNK         0.0900 
     68 H68       -79.3664   26.8768  -70.2001 H         1 UNK         0.0900 
     69 H69       -77.8655   26.7660  -71.1193 H         1 UNK         0.0900 
     70 H70       -77.9827   27.6067  -73.1861 H         1 UNK         0.2959 
     71 H71       -80.5408   28.2639  -74.4144 H         1 UNK         0.1079 
     72 H72       -77.6849   28.6814  -75.4538 H         1 UNK         0.0837 
     73 H73       -79.1260   29.3702  -76.1471 H         1 UNK         0.0837 
     74 H74       -76.2775   30.5504  -74.7996 H         1 UNK         0.0685 
     75 H75       -76.5876   31.6388  -73.4848 H         1 UNK         0.0685 
     76 H76       -75.6047   28.2153  -74.3335 H         1 UNK         0.1434 
     77 H77       -74.4913   27.2838  -70.3041 H         1 UNK         0.1329 
     78 H78       -76.7427   30.8346  -71.1411 H         1 UNK         0.1335 
     79 H79       -75.0828   28.6911  -68.5061 H         1 UNK         0.0680 
     80 H80       -76.5706   29.5864  -68.6954 H         1 UNK         0.0680 
     81 H81       -73.0137   29.7443  -70.0344 H         1 UNK         0.1032 
     82 H82       -72.2618   31.0612  -69.2078 H         1 UNK         0.1032 
     83 H83       -74.2000   31.8472  -71.3779 H         1 UNK         0.0461 
     84 H84       -71.0256   34.2930  -71.5440 H         1 UNK         0.3453 
     85 H85       -71.0317   32.7283  -72.3193 H         1 UNK         0.3453 
     86 H86       -71.9850   30.1286  -72.0730 H         1 UNK         0.2984 
     87 H87       -71.5649   30.8193  -75.1586 H         1 UNK         0.0554 
     88 H88       -71.1485   28.3586  -74.8662 H         1 UNK         0.0847 
     89 H89       -72.2120   28.3480  -73.4665 H         1 UNK         0.0847 
     90 H90       -70.7147   29.2791  -73.4437 H         1 UNK         0.0847 
     91 H91       -73.7211   28.8324  -75.4396 H         1 UNK         0.3141 
     92 H92       -75.6391   29.5086  -76.8467 H         1 UNK         0.0743 
     93 H93       -74.5991   30.8592  -79.3901 H         1 UNK         0.0784 
     94 H94       -76.1992   30.1518  -79.1648 H         1 UNK         0.0784 
     95 H95       -75.7260   31.5664  -78.2403 H         1 UNK         0.0784 
     96 H96       -74.1027   28.4748  -79.0916 H         1 UNK         0.3213 
     97 H97       -74.2443   26.0039  -79.1510 H         1 UNK         0.0855 
     98 H98       -72.0021   27.1741  -79.1232 H         1 UNK         0.0814 
     99 H99       -71.7797   25.4366  -79.0787 H         1 UNK         0.0814 
    100 H100      -71.5985   26.3848  -77.6048 H         1 UNK         0.0814 
    101 H101      -74.1077   25.0974  -76.4388 H         1 UNK         0.3105 
    102 H102      -74.6214   21.7247  -77.2976 H         1 UNK         0.0547 
    103 H103      -72.1293   21.6144  -77.2569 H         1 UNK         0.0837 
    104 H104      -72.0872   22.6977  -75.8739 H         1 UNK         0.0837 
    105 H105      -72.8107   21.0948  -75.7262 H         1 UNK         0.0837 
    106 H106      -74.2747   22.9622  -74.7450 H         1 UNK         0.3020 
    107 H107      -76.2770   22.6533  -73.5124 H         1 UNK         0.1245 
    108 H108      -77.2844   25.2041  -73.0833 H         1 UNK         0.0781 
    109 H109      -76.2480   25.5402  -74.4321 H         1 UNK         0.0781 
    110 H110      -74.0064   26.4252  -73.9077 H         1 UNK         0.0836 
    111 H111      -73.2349   26.3749  -72.3524 H         1 UNK         0.0836 
    112 H112      -78.6540   23.7066  -74.9300 H         1 UNK         0.3022 
    113 H113      -80.6123   21.0706  -73.5521 H         1 UNK         0.0747 
    114 H114      -82.2216   22.8550  -72.9757 H         1 UNK         0.0793 
    115 H115      -80.8988   22.8727  -71.8191 H         1 UNK         0.0793 
    116 H116      -80.9607   24.0797  -73.0974 H         1 UNK         0.0793 
    117 H117      -81.1979   23.2295  -75.3758 H         1 UNK         0.3047 
    118 H118      -80.1462   21.5571  -78.3258 H         1 UNK         0.0822 
    119 H119      -82.5097   21.9728  -78.9705 H         1 UNK         0.0807 
    120 H120      -82.9616   22.1578  -77.2765 H         1 UNK         0.0807 
    121 H121      -82.3831   20.6105  -77.8695 H         1 UNK         0.0807 
    122 H122      -79.8041   23.6966  -78.5230 H         1 UNK         0.2946 
    123 H123      -79.6338   25.8307  -78.1971 H         1 UNK         0.1144 
    124 H124      -81.6844   25.9003  -79.6422 H         1 UNK         0.0793 
    125 H125      -82.5625   26.7389  -78.3713 H         1 UNK         0.0793 
    126 H126      -81.1891   27.5145  -79.1626 H         1 UNK         0.0793 
    127 H127      -81.0288   27.7301  -76.6618 H         1 UNK         0.2896 
@<TRIPOS>BOND
     1    1    2 1    
     2    1   67 1    
     3    1   68 1    
     4    1   69 1    
     5    2    3 2    
     6    2    4 am   BACKBONE|DICT|INTERRES
     7    4    5 1    
     8    4   70 1    
     9    5    6 1    
    10    5   65 1    
    11    5   71 1    
    12    6    7 1    
    13    6   72 1    
    14    6   73 1    
    15    7    8 1    
    16    8    9 1    
    17    8   74 1    
    18    8   75 1    
    19    9   10 ar   
    20    9   14 ar   
    21   10   11 ar   
    22   10   76 1    
    23   11   12 ar   
    24   11   48 1    
    25   12   13 ar   
    26   12   77 1    
    27   13   14 ar   
    28   13   15 1    
    29   14   78 1    
    30   15   16 1    
    31   15   79 1    
    32   15   80 1    
    33   16   17 1    
    34   17   18 1    
    35   17   81 1    
    36   17   82 1    
    37   18   19 1    
    38   18   22 1    
    39   18   83 1    
    40   19   20 am   BACKBONE|DICT|INTERRES
    41   19   21 2    
    42   20   84 1    
    43   20   85 1    
    44   22   23 am   BACKBONE|DICT|INTERRES
    45   22   86 1    
    46   23   24 2    
    47   23   25 1    
    48   25   26 1    
    49   25   27 1    
    50   25   87 1    
    51   26   88 1    
    52   26   89 1    
    53   26   90 1    
    54   27   28 am   BACKBONE|DICT|INTERRES
    55   27   91 1    
    56   28   29 2    
    57   28   30 1    
    58   30   31 1    
    59   30   32 1    
    60   30   92 1    
    61   31   93 1    
    62   31   94 1    
    63   31   95 1    
    64   32   33 am   BACKBONE|DICT|INTERRES
    65   32   96 1    
    66   33   34 2    
    67   33   35 1    
    68   35   36 1    
    69   35   37 1    
    70   35   97 1    
    71   36   98 1    
    72   36   99 1    
    73   36  100 1    
    74   37   38 am   BACKBONE|DICT|INTERRES
    75   37  101 1    
    76   38   39 2    
    77   38   40 1    
    78   40   41 1    
    79   40   42 1    
    80   40  102 1    
    81   41  103 1    
    82   41  104 1    
    83   41  105 1    
    84   42   43 am   BACKBONE|DICT|INTERRES
    85   42  106 1    
    86   43   44 2    
    87   43   45 1    
    88   45   46 1    
    89   45   49 1    
    90   45  107 1    
    91   46   47 1    
    92   46  108 1    
    93   46  109 1    
    94   47   48 1    
    95   48  110 1    
    96   48  111 1    
    97   49   50 am   BACKBONE|DICT|INTERRES
    98   49  112 1    
    99   50   51 2    
   100   50   52 1    
   101   52   53 1    
   102   52   54 1    
   103   52  113 1    
   104   53  114 1    
   105   53  115 1    
   106   53  116 1    
   107   54   55 am   BACKBONE|DICT|INTERRES
   108   54  117 1    
   109   55   56 2    
   110   55   57 1    
   111   57   58 1    
   112   57   59 1    
   113   57  118 1    
   114   58  119 1    
   115   58  120 1    
   116   58  121 1    
   117   59   60 am   BACKBONE|DICT|INTERRES
   118   59  122 1    
   119   60   61 2    
   120   60   62 1    
   121   62   63 1    
   122   62   64 1    
   123   62  123 1    
   124   63  124 1    
   125   63  125 1    
   126   63  126 1    
   127   64   65 am   BACKBONE|DICT|INTERRES
   128   64  127 1    
   129   65   66 2    
@<TRIPOS>SUBSTRUCTURE
     1 UNK         1 GROUP             0       ****    0 ROOT    
