@<TRIPOS>MOLECULE
3R135
127   129    1
SMALL
USER_CHARGES


@<TRIPOS>ATOM
      1 CA        -83.2789   23.6328  -69.7852 C.3       0 UNK        -0.1998 
      2 C         -82.2571   23.8703  -70.8870 C.2       0 UNK         0.4909 
      3 O         -81.8347   22.9168  -71.5399 O.2       0 UNK        -0.5240 
      4 N         -81.8748   25.1375  -71.1036 N.am      1 UNK        -0.4739 
      5 CA        -80.8775   25.6164  -72.0780 C.3       1 UNK         0.0864 
      6 C6        -79.4535   25.0386  -71.8420 C.3       11 UNK        -0.0881 
      7 S7        -78.6959   25.6639  -70.3047 S.3       11 UNK        -0.2682 
      8 C8        -77.0773   26.2498  -70.9141 C.3       11 UNK         0.0289 
      9 C9        -77.0742   27.7079  -71.3691 C.ar      11 UNK        -0.0687 
     10 C10       -78.0177   28.1940  -72.2816 C.ar      11 UNK        -0.0823 
     11 C11       -77.9733   29.5197  -72.7264 C.ar      11 UNK        -0.0830 
     12 C12       -76.9709   30.3669  -72.2472 C.ar      11 UNK        -0.1021 
     13 C13       -76.0179   29.8965  -71.3400 C.ar      11 UNK        -0.0753 
     14 C14       -76.0784   28.5711  -70.9017 C.ar      11 UNK        -0.0933 
     15 C15       -74.9171   30.8159  -70.8343 C.3       11 UNK         0.0166 
     16 S16       -73.3690   30.5720  -71.7574 S.3       11 UNK        -0.2615 
     17 C17       -73.8228   31.2558  -73.3907 C.3       11 UNK        -0.0865 
     18 CA        -72.6127   31.4785  -74.3332 C.3       10 UNK         0.0862 
     19 C         -71.7009   32.6533  -73.8710 C.2       10 UNK         0.5551 
     20 N         -70.4226   32.4328  -73.5878 N.am      10 UNK        -0.7319 
     21 O         -72.1614   33.7892  -73.7843 O.2       10 UNK        -0.5018 
     22 N         -71.9187   30.2124  -74.6037 N.am      10 UNK        -0.4509 
     23 C         -71.1748   29.9449  -75.6811 C.2       10 UNK         0.4899 
     24 O         -70.9654   30.7576  -76.5822 O.2       10 UNK        -0.4839 
     25 CA        -70.5739   28.5324  -75.8040 C.3       9 UNK         0.0222 
     26 CB        -69.1096   28.5023  -75.3235 C.3       9 UNK        -0.1966 
     27 N         -71.3784   27.4653  -75.1886 N.am      9 UNK        -0.4218 
     28 C         -71.5987   27.2036  -73.8902 C.2       9 UNK         0.5020 
     29 O         -71.1065   27.8645  -72.9757 O.2       9 UNK        -0.5274 
     30 CA        -72.5552   26.0455  -73.5326 C.3       8 UNK         0.0270 
     31 CB        -73.7613   26.5688  -72.7344 C.3       8 UNK        -0.1976 
     32 N         -73.0517   25.3017  -74.6929 N.am      8 UNK        -0.4313 
     33 C         -72.3418   24.4265  -75.4171 C.2       8 UNK         0.5041 
     34 O         -71.2016   24.0619  -75.1299 O.2       8 UNK        -0.5577 
     35 CA        -72.9948   23.9262  -76.7170 C.3       7 UNK         0.0284 
     36 CB        -73.8659   22.6862  -76.4563 C.3       7 UNK        -0.1958 
     37 N         -73.7906   24.9700  -77.3743 N.am      7 UNK        -0.4454 
     38 C         -73.2756   26.0681  -77.9481 C.2       7 UNK         0.5089 
     39 O         -72.0690   26.2962  -78.0210 O.2       7 UNK        -0.5125 
     40 CA        -74.2700   27.1055  -78.4963 C.3       6 UNK         0.0408 
     41 CB        -74.6949   26.7427  -79.9277 C.3       6 UNK        -0.1791 
     42 N         -75.4582   27.2472  -77.6524 N.am      6 UNK        -0.4762 
     43 C         -75.4679   27.8108  -76.4339 C.2       6 UNK         0.5007 
     44 O         -74.4822   28.3292  -75.9119 O.2       6 UNK        -0.5032 
     45 CA        -76.7980   27.7434  -75.6549 C.3       5 UNK         0.0783 
     46 C46       -77.6616   28.9925  -75.9656 C.3       11 UNK        -0.0857 
     47 S47       -79.2895   28.9649  -75.1423 S.3       11 UNK        -0.2512 
     48 C48       -79.0153   30.0531  -73.7048 C.3       11 UNK         0.0225 
     49 N         -77.5155   26.4810  -75.8915 N.am      5 UNK        -0.4615 
     50 C         -77.0436   25.2641  -75.5844 C.2       4 UNK         0.5053 
     51 O         -75.9522   25.0894  -75.0422 O.2       4 UNK        -0.5105 
     52 CA        -77.8776   24.0378  -75.9945 C.3       4 UNK         0.0263 
     53 CB        -78.0999   23.0682  -74.8217 C.3       4 UNK        -0.1981 
     54 N         -79.1756   24.4042  -76.5696 N.am      4 UNK        -0.4224 
     55 C         -79.5742   24.1160  -77.8170 C.2       3 UNK         0.4895 
     56 O         -78.8652   23.5236  -78.6322 O.2       3 UNK        -0.5091 
     57 CA        -80.9776   24.5879  -78.2582 C.3       3 UNK         0.0250 
     58 CB        -81.6810   23.5603  -79.1714 C.3       3 UNK        -0.1996 
     59 N         -81.8614   25.0116  -77.1629 N.am      3 UNK        -0.4254 
     60 C         -82.3722   24.2576  -76.1774 C.2       2 UNK         0.5004 
     61 O         -82.1838   23.0464  -76.0505 O.2       2 UNK        -0.5226 
     62 CA        -83.2150   25.0107  -75.1304 C.3       2 UNK         0.0269 
     63 CB        -84.5997   24.3607  -74.9671 C.3       2 UNK        -0.1926 
     64 N         -82.5693   25.0958  -73.8152 N.am      2 UNK        -0.4687 
     65 C         -81.3154   25.5001  -73.5583 C.2       1 UNK         0.5165 
     66 O         -80.5191   25.8279  -74.4399 O.2       1 UNK        -0.5079 
     67 H67       -83.5769   24.5603  -69.2967 H         1 UNK         0.0900 
     68 H68       -84.1724   23.1634  -70.1961 H         1 UNK         0.0900 
     69 H69       -82.8637   22.9694  -69.0270 H         1 UNK         0.0900 
     70 H70       -82.2800   25.8651  -70.5302 H         1 UNK         0.2959 
     71 H71       -80.8222   26.6934  -71.9129 H         1 UNK         0.1079 
     72 H72       -78.7894   25.2843  -72.6710 H         1 UNK         0.0837 
     73 H73       -79.4703   23.9492  -71.8022 H         1 UNK         0.0837 
     74 H74       -76.7311   25.6157  -71.7311 H         1 UNK         0.0685 
     75 H75       -76.3574   26.1109  -70.1061 H         1 UNK         0.0685 
     76 H76       -78.7844   27.5425  -72.6681 H         1 UNK         0.1434 
     77 H77       -76.9275   31.3943  -72.5823 H         1 UNK         0.1329 
     78 H78       -75.3322   28.2092  -70.2076 H         1 UNK         0.1335 
     79 H79       -75.2234   31.8612  -70.8988 H         1 UNK         0.0680 
     80 H80       -74.7318   30.6177  -69.7776 H         1 UNK         0.0680 
     81 H81       -74.5222   30.5644  -73.8642 H         1 UNK         0.1032 
     82 H82       -74.3742   32.1878  -73.2529 H         1 UNK         0.1032 
     83 H83       -73.0299   31.8092  -75.2864 H         1 UNK         0.0461 
     84 H84       -70.0446   31.5016  -73.6526 H         1 UNK         0.3453 
     85 H85       -69.8384   33.2000  -73.2951 H         1 UNK         0.3453 
     86 H86       -71.9802   29.5073  -73.8781 H         1 UNK         0.2984 
     87 H87       -70.5659   28.3003  -76.8699 H         1 UNK         0.0554 
     88 H88       -68.6671   27.5159  -75.4622 H         1 UNK         0.0847 
     89 H89       -69.0164   28.7675  -74.2702 H         1 UNK         0.0847 
     90 H90       -68.5027   29.2116  -75.8877 H         1 UNK         0.0847 
     91 H91       -71.8637   26.8825  -75.8587 H         1 UNK         0.3141 
     92 H92       -71.9988   25.3548  -72.8959 H         1 UNK         0.0743 
     93 H93       -74.3485   27.2845  -73.3109 H         1 UNK         0.0784 
     94 H94       -74.4209   25.7538  -72.4383 H         1 UNK         0.0784 
     95 H95       -73.4413   27.0744  -71.8223 H         1 UNK         0.0784 
     96 H96       -74.0185   25.4688  -74.9597 H         1 UNK         0.3213 
     97 H97       -72.1920   23.6379  -77.3995 H         1 UNK         0.0855 
     98 H98       -74.6783   22.8940  -75.7599 H         1 UNK         0.0814 
     99 H99       -73.2706   21.8804  -76.0249 H         1 UNK         0.0814 
    100 H100      -74.3030   22.3053  -77.3794 H         1 UNK         0.0814 
    101 H101      -74.7940   24.8796  -77.3231 H         1 UNK         0.3105 
    102 H102      -73.7594   28.0707  -78.5284 H         1 UNK         0.0547 
    103 H103      -73.8252   26.6511  -80.5800 H         1 UNK         0.0837 
    104 H104      -75.2311   25.7936  -79.9658 H         1 UNK         0.0837 
    105 H105      -75.3389   27.5102  -80.3571 H         1 UNK         0.0837 
    106 H106      -76.3200   26.8549  -78.0038 H         1 UNK         0.3020 
    107 H107      -76.5336   27.7666  -74.5960 H         1 UNK         0.1245 
    108 H108      -77.8427   29.0744  -77.0391 H         1 UNK         0.0781 
    109 H109      -77.1316   29.9033  -75.6790 H         1 UNK         0.0781 
    110 H110      -79.9603   30.1718  -73.1733 H         1 UNK         0.0836 
    111 H111      -78.7404   31.0456  -74.0655 H         1 UNK         0.0836 
    112 H112      -78.4361   26.5611  -76.2972 H         1 UNK         0.3022 
    113 H113      -77.2685   23.5147  -76.7340 H         1 UNK         0.0747 
    114 H114      -78.4947   22.1162  -75.1767 H         1 UNK         0.0793 
    115 H115      -77.1704   22.8536  -74.2923 H         1 UNK         0.0793 
    116 H116      -78.8108   23.4642  -74.1001 H         1 UNK         0.0793 
    117 H117      -79.8119   24.8970  -75.9459 H         1 UNK         0.3047 
    118 H118      -80.8043   25.4836  -78.8566 H         1 UNK         0.0822 
    119 H119      -81.8204   22.6015  -78.6713 H         1 UNK         0.0807 
    120 H120      -81.0975   23.3715  -80.0734 H         1 UNK         0.0807 
    121 H121      -82.6597   23.9174  -79.4919 H         1 UNK         0.0807 
    122 H122      -82.0571   26.0033  -77.1398 H         1 UNK         0.2946 
    123 H123      -83.3676   26.0345  -75.4782 H         1 UNK         0.1144 
    124 H124      -85.1107   24.2833  -75.9278 H         1 UNK         0.0793 
    125 H125      -85.2401   24.9468  -74.3076 H         1 UNK         0.0793 
    126 H126      -84.5257   23.3531  -74.5554 H         1 UNK         0.0793 
    127 H127      -83.1315   24.8219  -73.0231 H         1 UNK         0.2896 
@<TRIPOS>BOND
     1    1    2 1    
     2    1   67 1    
     3    1   68 1    
     4    1   69 1    
     5    2    3 2    
     6    2    4 am   BACKBONE|DICT|INTERRES
     7    4    5 1    
     8    4   70 1    
     9    5    6 1    
    10    5   65 1    
    11    5   71 1    
    12    6    7 1    
    13    6   72 1    
    14    6   73 1    
    15    7    8 1    
    16    8    9 1    
    17    8   74 1    
    18    8   75 1    
    19    9   10 ar   
    20    9   14 ar   
    21   10   11 ar   
    22   10   76 1    
    23   11   12 ar   
    24   11   48 1    
    25   12   13 ar   
    26   12   77 1    
    27   13   14 ar   
    28   13   15 1    
    29   14   78 1    
    30   15   16 1    
    31   15   79 1    
    32   15   80 1    
    33   16   17 1    
    34   17   18 1    
    35   17   81 1    
    36   17   82 1    
    37   18   19 1    
    38   18   22 1    
    39   18   83 1    
    40   19   20 am   BACKBONE|DICT|INTERRES
    41   19   21 2    
    42   20   84 1    
    43   20   85 1    
    44   22   23 am   BACKBONE|DICT|INTERRES
    45   22   86 1    
    46   23   24 2    
    47   23   25 1    
    48   25   26 1    
    49   25   27 1    
    50   25   87 1    
    51   26   88 1    
    52   26   89 1    
    53   26   90 1    
    54   27   28 am   BACKBONE|DICT|INTERRES
    55   27   91 1    
    56   28   29 2    
    57   28   30 1    
    58   30   31 1    
    59   30   32 1    
    60   30   92 1    
    61   31   93 1    
    62   31   94 1    
    63   31   95 1    
    64   32   33 am   BACKBONE|DICT|INTERRES
    65   32   96 1    
    66   33   34 2    
    67   33   35 1    
    68   35   36 1    
    69   35   37 1    
    70   35   97 1    
    71   36   98 1    
    72   36   99 1    
    73   36  100 1    
    74   37   38 am   BACKBONE|DICT|INTERRES
    75   37  101 1    
    76   38   39 2    
    77   38   40 1    
    78   40   41 1    
    79   40   42 1    
    80   40  102 1    
    81   41  103 1    
    82   41  104 1    
    83   41  105 1    
    84   42   43 am   BACKBONE|DICT|INTERRES
    85   42  106 1    
    86   43   44 2    
    87   43   45 1    
    88   45   46 1    
    89   45   49 1    
    90   45  107 1    
    91   46   47 1    
    92   46  108 1    
    93   46  109 1    
    94   47   48 1    
    95   48  110 1    
    96   48  111 1    
    97   49   50 am   BACKBONE|DICT|INTERRES
    98   49  112 1    
    99   50   51 2    
   100   50   52 1    
   101   52   53 1    
   102   52   54 1    
   103   52  113 1    
   104   53  114 1    
   105   53  115 1    
   106   53  116 1    
   107   54   55 am   BACKBONE|DICT|INTERRES
   108   54  117 1    
   109   55   56 2    
   110   55   57 1    
   111   57   58 1    
   112   57   59 1    
   113   57  118 1    
   114   58  119 1    
   115   58  120 1    
   116   58  121 1    
   117   59   60 am   BACKBONE|DICT|INTERRES
   118   59  122 1    
   119   60   61 2    
   120   60   62 1    
   121   62   63 1    
   122   62   64 1    
   123   62  123 1    
   124   63  124 1    
   125   63  125 1    
   126   63  126 1    
   127   64   65 am   BACKBONE|DICT|INTERRES
   128   64  127 1    
   129   65   66 2    
@<TRIPOS>SUBSTRUCTURE
     1 UNK         1 GROUP             0       ****    0 ROOT    
