@<TRIPOS>MOLECULE
3R135
127   129    1
SMALL
USER_CHARGES


@<TRIPOS>ATOM
      1 CA        -84.4584   26.5836  -74.3167 C.3       0 UNK        -0.1998 
      2 C         -83.4351   27.6816  -74.0673 C.2       0 UNK         0.4909 
      3 O         -83.7837   28.8624  -74.0869 O.2       0 UNK        -0.5240 
      4 N         -82.1758   27.3016  -73.8360 N.am      1 UNK        -0.4739 
      5 CA        -81.0394   28.1942  -73.6235 C.3       1 UNK         0.0864 
      6 C6        -80.9551   28.6743  -72.1499 C.3       11 UNK        -0.0881 
      7 S7        -79.7620   30.0352  -71.8771 S.3       11 UNK        -0.2682 
      8 C8        -78.9024   29.5116  -70.3568 C.3       11 UNK         0.0289 
      9 C9        -77.8609   28.4233  -70.5949 C.ar      11 UNK        -0.0687 
     10 C10       -78.2189   27.0756  -70.4955 C.ar      11 UNK        -0.0823 
     11 C11       -77.2644   26.0685  -70.6525 C.ar      11 UNK        -0.0830 
     12 C12       -75.9335   26.4160  -70.8994 C.ar      11 UNK        -0.1021 
     13 C13       -75.5508   27.7602  -70.9701 C.ar      11 UNK        -0.0753 
     14 C14       -76.5227   28.7592  -70.8349 C.ar      11 UNK        -0.0933 
     15 C15       -74.0756   28.1210  -71.1028 C.3       11 UNK         0.0166 
     16 S16       -73.6358   28.7073  -72.7672 S.3       11 UNK        -0.2615 
     17 C17       -73.4762   30.5110  -72.5041 C.3       11 UNK        -0.0865 
     18 CA        -73.8456   31.3638  -73.7494 C.3       10 UNK         0.0862 
     19 C         -73.7261   32.8846  -73.4366 C.2       10 UNK         0.5551 
     20 N         -72.8796   33.6428  -74.1228 N.am      10 UNK        -0.7319 
     21 O         -74.4196   33.3851  -72.5549 O.2       10 UNK        -0.5018 
     22 N         -73.1186   30.9201  -74.9509 N.am      10 UNK        -0.4509 
     23 C         -73.5042   31.1362  -76.2162 C.2       10 UNK         0.4899 
     24 O         -74.5119   31.7715  -76.5267 O.2       10 UNK        -0.4839 
     25 CA        -72.6178   30.5465  -77.3331 C.3       9 UNK         0.0222 
     26 CB        -71.7381   31.6444  -77.9538 C.3       9 UNK        -0.1966 
     27 N         -71.7639   29.4406  -76.8825 N.am      9 UNK        -0.4218 
     28 C         -72.2164   28.2285  -76.5335 C.2       9 UNK         0.5020 
     29 O         -73.3938   27.8787  -76.6569 O.2       9 UNK        -0.5274 
     30 CA        -71.1971   27.2550  -75.9190 C.3       8 UNK         0.0270 
     31 CB        -70.3291   27.9362  -74.8331 C.3       8 UNK        -0.1976 
     32 N         -71.9623   26.1444  -75.3600 N.am      8 UNK        -0.4313 
     33 C         -71.5021   25.0237  -74.7963 C.2       8 UNK         0.5041 
     34 O         -70.3095   24.7306  -74.7016 O.2       8 UNK        -0.5577 
     35 CA        -72.5646   24.0635  -74.2409 C.3       7 UNK         0.0284 
     36 CB        -73.0727   24.5500  -72.8729 C.3       7 UNK        -0.1958 
     37 N         -73.7030   23.9026  -75.1461 N.am      7 UNK        -0.4454 
     38 C         -73.6969   23.1626  -76.2634 C.2       7 UNK         0.5089 
     39 O         -72.7052   22.5620  -76.6808 O.2       7 UNK        -0.5125 
     40 CA        -75.0344   23.0719  -77.0273 C.3       6 UNK         0.0408 
     41 CB        -75.1388   21.8203  -77.9234 C.3       6 UNK        -0.1791 
     42 N         -76.2004   23.1926  -76.1428 N.am      6 UNK        -0.4762 
     43 C         -76.5727   22.3650  -75.1531 C.2       6 UNK         0.5007 
     44 O         -76.0065   21.3036  -74.8902 O.2       6 UNK        -0.5032 
     45 CA        -77.7703   22.8133  -74.2914 C.3       5 UNK         0.0783 
     46 C46       -77.2836   23.6858  -73.1092 C.3       11 UNK        -0.0857 
     47 S47       -78.6172   23.9960  -71.9094 S.3       11 UNK        -0.2512 
     48 C48       -77.6707   24.6113  -70.4836 C.3       11 UNK         0.0225 
     49 N         -78.7996   23.4930  -75.0849 N.am      5 UNK        -0.4615 
     50 C         -79.5700   22.8989  -76.0066 C.2       4 UNK         0.5053 
     51 O         -79.5427   21.6929  -76.2523 O.2       4 UNK        -0.5105 
     52 CA        -80.5192   23.8086  -76.8005 C.3       4 UNK         0.0263 
     53 CB        -81.8260   24.0478  -76.0258 C.3       4 UNK        -0.1981 
     54 N         -79.8810   25.0888  -77.1140 N.am      4 UNK        -0.4224 
     55 C         -79.0277   25.2709  -78.1331 C.2       3 UNK         0.4895 
     56 O         -78.7612   24.4035  -78.9653 O.2       3 UNK        -0.5091 
     57 CA        -78.3490   26.6476  -78.2524 C.3       3 UNK         0.0250 
     58 CB        -79.1412   27.5558  -79.2065 C.3       3 UNK        -0.1996 
     59 N         -78.1759   27.3310  -76.9688 N.am      3 UNK        -0.4254 
     60 C         -77.3428   26.9315  -75.9976 C.2       2 UNK         0.5004 
     61 O         -76.6141   25.9448  -76.0779 O.2       2 UNK        -0.5226 
     62 CA        -77.3652   27.7429  -74.6951 C.3       2 UNK         0.0269 
     63 CB        -76.4375   28.9554  -74.8127 C.3       2 UNK        -0.1926 
     64 N         -78.6929   28.2152  -74.3001 N.am      2 UNK        -0.4687 
     65 C         -79.7771   27.4568  -74.1071 C.2       1 UNK         0.5165 
     66 O         -79.8115   26.2417  -74.3282 O.2       1 UNK        -0.5079 
     67 H67       -84.0231   25.5895  -74.2154 H         1 UNK         0.0900 
     68 H68       -84.8681   26.6740  -75.3223 H         1 UNK         0.0900 
     69 H69       -85.2793   26.6669  -73.6049 H         1 UNK         0.0900 
     70 H70       -81.9123   26.3245  -73.8732 H         1 UNK         0.2959 
     71 H71       -81.1675   29.0644  -74.2716 H         1 UNK         0.1079 
     72 H72       -81.9293   29.0515  -71.8352 H         1 UNK         0.0837 
     73 H73       -80.7473   27.8342  -71.4899 H         1 UNK         0.0837 
     74 H74       -78.4188   30.3860  -69.9189 H         1 UNK         0.0685 
     75 H75       -79.6364   29.1793  -69.6209 H         1 UNK         0.0685 
     76 H76       -79.2386   26.7999  -70.2693 H         1 UNK         0.1434 
     77 H77       -75.1873   25.6392  -70.9908 H         1 UNK         0.1329 
     78 H78       -76.2314   29.7992  -70.8805 H         1 UNK         0.1335 
     79 H79       -73.8100   28.8667  -70.3524 H         1 UNK         0.0680 
     80 H80       -73.4566   27.2505  -70.8804 H         1 UNK         0.0680 
     81 H81       -72.4500   30.7164  -72.1939 H         1 UNK         0.1032 
     82 H82       -74.1084   30.8003  -71.6630 H         1 UNK         0.1032 
     83 H83       -74.9058   31.2049  -73.9451 H         1 UNK         0.0461 
     84 H84       -72.8137   34.6264  -73.9130 H         1 UNK         0.3453 
     85 H85       -72.3123   33.2409  -74.8511 H         1 UNK         0.3453 
     86 H86       -72.2821   30.3828  -74.7855 H         1 UNK         0.2984 
     87 H87       -73.2842   30.1656  -78.1100 H         1 UNK         0.0554 
     88 H88       -71.1672   31.2644  -78.8012 H         1 UNK         0.0847 
     89 H89       -71.0334   32.0578  -77.2312 H         1 UNK         0.0847 
     90 H90       -72.3476   32.4707  -78.3229 H         1 UNK         0.0847 
     91 H91       -70.7800   29.6413  -76.7735 H         1 UNK         0.3141 
     92 H92       -70.5604   26.8737  -76.7192 H         1 UNK         0.0743 
     93 H93       -69.7302   28.7489  -75.2443 H         1 UNK         0.0784 
     94 H94       -70.9394   28.3491  -74.0297 H         1 UNK         0.0784 
     95 H95       -69.6238   27.2390  -74.3821 H         1 UNK         0.0784 
     96 H96       -72.9632   26.2834  -75.4514 H         1 UNK         0.3213 
     97 H97       -72.0936   23.0877  -74.1020 H         1 UNK         0.0855 
     98 H98       -72.2459   24.6771  -72.1727 H         1 UNK         0.0814 
     99 H99       -73.7649   23.8343  -72.4292 H         1 UNK         0.0814 
    100 H100      -73.5839   25.5105  -72.9494 H         1 UNK         0.0814 
    101 H101      -74.5610   24.3775  -74.9057 H         1 UNK         0.3105 
    102 H102      -75.0662   23.9454  -77.6802 H         1 UNK         0.0547 
    103 H103      -74.3555   21.8172  -78.6821 H         1 UNK         0.0837 
    104 H104      -75.0362   20.8991  -77.3494 H         1 UNK         0.0837 
    105 H105      -76.0948   21.7867  -78.4459 H         1 UNK         0.0837 
    106 H106      -76.6816   24.0876  -76.2109 H         1 UNK         0.3020 
    107 H107      -78.2168   21.9034  -73.8830 H         1 UNK         0.1245 
    108 H108      -76.8974   24.6441  -73.4610 H         1 UNK         0.0781 
    109 H109      -76.4627   23.1932  -72.5839 H         1 UNK         0.0781 
    110 H110      -76.7995   23.9770  -70.3131 H         1 UNK         0.0836 
    111 H111      -78.2888   24.5162  -69.5896 H         1 UNK         0.0836 
    112 H112      -78.9457   24.4770  -74.8859 H         1 UNK         0.3022 
    113 H113      -80.7719   23.3013  -77.7344 H         1 UNK         0.0747 
    114 H114      -82.4947   24.7162  -76.5685 H         1 UNK         0.0793 
    115 H115      -82.3600   23.1091  -75.8728 H         1 UNK         0.0793 
    116 H116      -81.6441   24.4773  -75.0412 H         1 UNK         0.0793 
    117 H117      -79.9978   25.8304  -76.4354 H         1 UNK         0.3047 
    118 H118      -77.3568   26.4848  -78.6795 H         1 UNK         0.0822 
    119 H119      -78.6289   28.5043  -79.3692 H         1 UNK         0.0807 
    120 H120      -80.1393   27.7729  -78.8237 H         1 UNK         0.0807 
    121 H121      -79.2624   27.0842  -80.1829 H         1 UNK         0.0807 
    122 H122      -78.7365   28.1549  -76.8068 H         1 UNK         0.2946 
    123 H123      -76.9938   27.0984  -73.8950 H         1 UNK         0.1144 
    124 H124      -76.3644   29.4714  -73.8563 H         1 UNK         0.0793 
    125 H125      -76.7852   29.6708  -75.5588 H         1 UNK         0.0793 
    126 H126      -75.4307   28.6514  -75.0996 H         1 UNK         0.0793 
    127 H127      -78.7583   29.1927  -74.0507 H         1 UNK         0.2896 
@<TRIPOS>BOND
     1    1    2 1    
     2    1   67 1    
     3    1   68 1    
     4    1   69 1    
     5    2    3 2    
     6    2    4 am   BACKBONE|DICT|INTERRES
     7    4    5 1    
     8    4   70 1    
     9    5    6 1    
    10    5   65 1    
    11    5   71 1    
    12    6    7 1    
    13    6   72 1    
    14    6   73 1    
    15    7    8 1    
    16    8    9 1    
    17    8   74 1    
    18    8   75 1    
    19    9   10 ar   
    20    9   14 ar   
    21   10   11 ar   
    22   10   76 1    
    23   11   12 ar   
    24   11   48 1    
    25   12   13 ar   
    26   12   77 1    
    27   13   14 ar   
    28   13   15 1    
    29   14   78 1    
    30   15   16 1    
    31   15   79 1    
    32   15   80 1    
    33   16   17 1    
    34   17   18 1    
    35   17   81 1    
    36   17   82 1    
    37   18   19 1    
    38   18   22 1    
    39   18   83 1    
    40   19   20 am   BACKBONE|DICT|INTERRES
    41   19   21 2    
    42   20   84 1    
    43   20   85 1    
    44   22   23 am   BACKBONE|DICT|INTERRES
    45   22   86 1    
    46   23   24 2    
    47   23   25 1    
    48   25   26 1    
    49   25   27 1    
    50   25   87 1    
    51   26   88 1    
    52   26   89 1    
    53   26   90 1    
    54   27   28 am   BACKBONE|DICT|INTERRES
    55   27   91 1    
    56   28   29 2    
    57   28   30 1    
    58   30   31 1    
    59   30   32 1    
    60   30   92 1    
    61   31   93 1    
    62   31   94 1    
    63   31   95 1    
    64   32   33 am   BACKBONE|DICT|INTERRES
    65   32   96 1    
    66   33   34 2    
    67   33   35 1    
    68   35   36 1    
    69   35   37 1    
    70   35   97 1    
    71   36   98 1    
    72   36   99 1    
    73   36  100 1    
    74   37   38 am   BACKBONE|DICT|INTERRES
    75   37  101 1    
    76   38   39 2    
    77   38   40 1    
    78   40   41 1    
    79   40   42 1    
    80   40  102 1    
    81   41  103 1    
    82   41  104 1    
    83   41  105 1    
    84   42   43 am   BACKBONE|DICT|INTERRES
    85   42  106 1    
    86   43   44 2    
    87   43   45 1    
    88   45   46 1    
    89   45   49 1    
    90   45  107 1    
    91   46   47 1    
    92   46  108 1    
    93   46  109 1    
    94   47   48 1    
    95   48  110 1    
    96   48  111 1    
    97   49   50 am   BACKBONE|DICT|INTERRES
    98   49  112 1    
    99   50   51 2    
   100   50   52 1    
   101   52   53 1    
   102   52   54 1    
   103   52  113 1    
   104   53  114 1    
   105   53  115 1    
   106   53  116 1    
   107   54   55 am   BACKBONE|DICT|INTERRES
   108   54  117 1    
   109   55   56 2    
   110   55   57 1    
   111   57   58 1    
   112   57   59 1    
   113   57  118 1    
   114   58  119 1    
   115   58  120 1    
   116   58  121 1    
   117   59   60 am   BACKBONE|DICT|INTERRES
   118   59  122 1    
   119   60   61 2    
   120   60   62 1    
   121   62   63 1    
   122   62   64 1    
   123   62  123 1    
   124   63  124 1    
   125   63  125 1    
   126   63  126 1    
   127   64   65 am   BACKBONE|DICT|INTERRES
   128   64  127 1    
   129   65   66 2    
@<TRIPOS>SUBSTRUCTURE
     1 UNK         1 GROUP             0       ****    0 ROOT    
