@<TRIPOS>MOLECULE
3R135
127   129    1
SMALL
USER_CHARGES


@<TRIPOS>ATOM
      1 CA        -81.4035   22.2648  -72.1901 C.3       0 UNK        -0.1998 
      2 C         -81.2139   23.7448  -72.4807 C.2       0 UNK         0.4909 
      3 O         -80.1955   24.1261  -73.0594 O.2       0 UNK        -0.5240 
      4 N         -82.1988   24.5788  -72.1147 N.am      1 UNK        -0.4739 
      5 CA        -82.2384   26.0502  -72.2210 C.3       1 UNK         0.0864 
      6 C6        -81.0918   26.7301  -71.4226 C.3       11 UNK        -0.0881 
      7 S7        -81.5944   28.3293  -70.7055 S.3       11 UNK        -0.2682 
      8 C8        -80.0456   28.8682  -69.9009 C.3       11 UNK         0.0289 
      9 C9        -78.8840   29.0512  -70.8737 C.ar      11 UNK        -0.0687 
     10 C10       -79.0696   29.7070  -72.0952 C.ar      11 UNK        -0.0823 
     11 C11       -78.0167   29.8391  -73.0036 C.ar      11 UNK        -0.0830 
     12 C12       -76.7542   29.3450  -72.6661 C.ar      11 UNK        -0.1021 
     13 C13       -76.5459   28.7112  -71.4374 C.ar      11 UNK        -0.0753 
     14 C14       -77.6143   28.5630  -70.5475 C.ar      11 UNK        -0.0933 
     15 C15       -75.1717   28.1620  -71.0900 C.3       11 UNK         0.0166 
     16 S16       -74.1324   29.4253  -70.2989 S.3       11 UNK        -0.2615 
     17 C17       -72.4762   28.6777  -70.4943 C.3       11 UNK        -0.0865 
     18 CA        -71.6751   29.3300  -71.6539 C.3       10 UNK         0.0862 
     19 C         -70.1980   28.8371  -71.7035 C.2       10 UNK         0.5551 
     20 N         -69.6450   28.4840  -72.8590 N.am      10 UNK        -0.7319 
     21 O         -69.5325   28.7839  -70.6722 O.2       10 UNK        -0.5018 
     22 N         -72.3821   29.1938  -72.9371 N.am      10 UNK        -0.4509 
     23 C         -72.4334   30.1289  -73.8901 C.2       10 UNK         0.4899 
     24 O         -71.9199   31.2446  -73.7913 O.2       10 UNK        -0.4839 
     25 CA        -73.1851   29.7286  -75.1733 C.3       9 UNK         0.0222 
     26 CB        -72.9686   30.7286  -76.3291 C.3       9 UNK        -0.1966 
     27 N         -72.8988   28.3546  -75.6150 N.am      9 UNK        -0.4218 
     28 C         -71.7009   27.8535  -75.9505 C.2       9 UNK         0.5020 
     29 O         -70.6385   28.4582  -75.7941 O.2       9 UNK        -0.5274 
     30 CA        -71.6924   26.4327  -76.5350 C.3       8 UNK         0.0270 
     31 CB        -70.2674   25.9185  -76.8343 C.3       8 UNK        -0.1976 
     32 N         -72.3735   25.5120  -75.6246 N.am      8 UNK        -0.4313 
     33 C         -73.0457   24.3940  -75.9299 C.2       8 UNK         0.5041 
     34 O         -73.5404   23.6910  -75.0499 O.2       8 UNK        -0.5577 
     35 CA        -73.2382   23.9880  -77.4031 C.3       7 UNK         0.0284 
     36 CB        -73.4059   22.4657  -77.5696 C.3       7 UNK        -0.1958 
     37 N         -74.4381   24.6484  -77.9066 N.am      7 UNK        -0.4454 
     38 C         -74.5251   25.3441  -79.0456 C.2       7 UNK         0.5089 
     39 O         -73.5842   25.5148  -79.8215 O.2       7 UNK        -0.5125 
     40 CA        -75.8941   25.9663  -79.3739 C.3       6 UNK         0.0408 
     41 CB        -76.8409   24.9167  -79.9776 C.3       6 UNK        -0.1791 
     42 N         -76.5318   26.5898  -78.2124 N.am      6 UNK        -0.4762 
     43 C         -76.0890   27.7001  -77.6034 C.2       6 UNK         0.5007 
     44 O         -75.1045   28.3384  -77.9721 O.2       6 UNK        -0.5032 
     45 CA        -76.8697   28.1595  -76.3587 C.3       5 UNK         0.0783 
     46 C46       -78.1007   29.0059  -76.7739 C.3       11 UNK        -0.0857 
     47 S47       -79.2546   29.4082  -75.4207 S.3       11 UNK        -0.2512 
     48 C48       -78.2657   30.5003  -74.3503 C.3       11 UNK         0.0225 
     49 N         -77.1926   27.0074  -75.5137 N.am      5 UNK        -0.4615 
     50 C         -76.2974   26.3818  -74.7361 C.2       4 UNK         0.5053 
     51 O         -75.1427   26.7844  -74.5844 O.2       4 UNK        -0.5105 
     52 CA        -76.7457   25.0905  -74.0238 C.3       4 UNK         0.0263 
     53 CB        -77.1473   25.3841  -72.5720 C.3       4 UNK        -0.1981 
     54 N         -77.8532   24.4042  -74.6919 N.am      4 UNK        -0.4224 
     55 C         -77.7796   23.8322  -75.9023 C.2       3 UNK         0.4895 
     56 O         -76.7507   23.7763  -76.5724 O.2       3 UNK        -0.5091 
     57 CA        -79.0911   23.2937  -76.4977 C.3       3 UNK         0.0250 
     58 CB        -79.3769   21.8748  -75.9816 C.3       3 UNK        -0.1996 
     59 N         -80.2379   24.1612  -76.2141 N.am      3 UNK        -0.4254 
     60 C         -80.3456   25.4435  -76.5972 C.2       2 UNK         0.5004 
     61 O         -79.5150   26.0166  -77.3017 O.2       2 UNK        -0.5226 
     62 CA        -81.5336   26.2264  -76.0274 C.3       2 UNK         0.0269 
     63 CB        -82.8337   25.8981  -76.7841 C.3       2 UNK        -0.1926 
     64 N         -81.6547   25.9191  -74.6038 N.am      2 UNK        -0.4687 
     65 C         -82.3362   26.5883  -73.6719 C.2       1 UNK         0.5165 
     66 O         -83.0375   27.5707  -73.9165 O.2       1 UNK        -0.5079 
     67 H67       -81.4579   21.7030  -73.1220 H         1 UNK         0.0900 
     68 H68       -80.5595   21.8876  -71.6134 H         1 UNK         0.0900 
     69 H69       -82.3141   22.0736  -71.6229 H         1 UNK         0.0900 
     70 H70       -83.0232   24.1770  -71.6889 H         1 UNK         0.2959 
     71 H71       -83.1833   26.3204  -71.7459 H         1 UNK         0.1079 
     72 H72       -80.2027   26.8598  -72.0423 H         1 UNK         0.0837 
     73 H73       -80.7820   26.0959  -70.5904 H         1 UNK         0.0837 
     74 H74       -80.2262   29.8157  -69.3919 H         1 UNK         0.0685 
     75 H75       -79.7886   28.1440  -69.1262 H         1 UNK         0.0685 
     76 H76       -80.0468   30.0891  -72.3574 H         1 UNK         0.1434 
     77 H77       -75.9323   29.4424  -73.3595 H         1 UNK         0.1329 
     78 H78       -77.4555   28.0624  -69.6021 H         1 UNK         0.1335 
     79 H79       -75.2601   27.3045  -70.4212 H         1 UNK         0.0680 
     80 H80       -74.6887   27.7968  -71.9970 H         1 UNK         0.0680 
     81 H81       -71.9495   28.8101  -69.5472 H         1 UNK         0.1032 
     82 H82       -72.5626   27.5993  -70.6389 H         1 UNK         0.1032 
     83 H83       -71.6014   30.3930  -71.4166 H         1 UNK         0.0461 
     84 H84       -70.1511   28.5674  -73.7319 H         1 UNK         0.3453 
     85 H85       -68.6865   28.1738  -72.8668 H         1 UNK         0.3453 
     86 H86       -72.8132   28.3000  -73.1175 H         1 UNK         0.2984 
     87 H87       -74.2435   29.7529  -74.9188 H         1 UNK         0.0554 
     88 H88       -73.2944   31.7306  -76.0474 H         1 UNK         0.0847 
     89 H89       -73.5367   30.4430  -77.2141 H         1 UNK         0.0847 
     90 H90       -71.9180   30.7963  -76.6135 H         1 UNK         0.0847 
     91 H91       -73.7044   27.7374  -75.6635 H         1 UNK         0.3141 
     92 H92       -72.2423   26.5061  -77.4740 H         1 UNK         0.0743 
     93 H93       -69.6631   25.8679  -75.9276 H         1 UNK         0.0784 
     94 H94       -70.2715   24.9256  -77.2820 H         1 UNK         0.0784 
     95 H95       -69.7529   26.5810  -77.5317 H         1 UNK         0.0784 
     96 H96       -72.3198   25.7650  -74.6483 H         1 UNK         0.3213 
     97 H97       -72.3597   24.2774  -77.9792 H         1 UNK         0.0855 
     98 H98       -74.2990   22.0983  -77.0617 H         1 UNK         0.0814 
     99 H99       -72.5495   21.9314  -77.1567 H         1 UNK         0.0814 
    100 H100      -73.4854   22.1907  -78.6214 H         1 UNK         0.0814 
    101 H101      -75.2777   24.5201  -77.3415 H         1 UNK         0.3105 
    102 H102      -75.7341   26.7441  -80.1235 H         1 UNK         0.0547 
    103 H103      -76.4036   24.4654  -80.8692 H         1 UNK         0.0837 
    104 H104      -77.0538   24.1097  -79.2760 H         1 UNK         0.0837 
    105 H105      -77.7912   25.3621  -80.2726 H         1 UNK         0.0837 
    106 H106      -77.3657   26.1420  -77.8489 H         1 UNK         0.3020 
    107 H107      -76.2059   28.8117  -75.7906 H         1 UNK         0.1245 
    108 H108      -78.6834   28.4900  -77.5389 H         1 UNK         0.0781 
    109 H109      -77.7749   29.9405  -77.2347 H         1 UNK         0.0781 
    110 H110      -78.8104   31.4334  -74.1991 H         1 UNK         0.0836 
    111 H111      -77.3272   30.7731  -74.8344 H         1 UNK         0.0836 
    112 H112      -78.1218   26.6245  -75.6159 H         1 UNK         0.3022 
    113 H113      -75.8943   24.4082  -74.0111 H         1 UNK         0.0747 
    114 H114      -77.5019   24.4866  -72.0649 H         1 UNK         0.0793 
    115 H115      -76.2946   25.7553  -72.0061 H         1 UNK         0.0793 
    116 H116      -77.9357   26.1354  -72.5157 H         1 UNK         0.0793 
    117 H117      -78.7321   24.3592  -74.1799 H         1 UNK         0.3047 
    118 H118      -78.9692   23.2492  -77.5821 H         1 UNK         0.0822 
    119 H119      -80.2670   21.4530  -76.4486 H         1 UNK         0.0807 
    120 H120      -79.5232   21.8591  -74.9008 H         1 UNK         0.0807 
    121 H121      -78.5459   21.2048  -76.2071 H         1 UNK         0.0807 
    122 H122      -80.9750   23.7611  -75.6528 H         1 UNK         0.2946 
    123 H123      -81.3175   27.2913  -76.1367 H         1 UNK         0.1144 
    124 H124      -83.6624   26.5159  -76.4383 H         1 UNK         0.0793 
    125 H125      -83.1223   24.8537  -76.6614 H         1 UNK         0.0793 
    126 H126      -82.7189   26.0838  -77.8529 H         1 UNK         0.0793 
    127 H127      -81.0587   25.1734  -74.2509 H         1 UNK         0.2896 
@<TRIPOS>BOND
     1    1    2 1    
     2    1   67 1    
     3    1   68 1    
     4    1   69 1    
     5    2    3 2    
     6    2    4 am   BACKBONE|DICT|INTERRES
     7    4    5 1    
     8    4   70 1    
     9    5    6 1    
    10    5   65 1    
    11    5   71 1    
    12    6    7 1    
    13    6   72 1    
    14    6   73 1    
    15    7    8 1    
    16    8    9 1    
    17    8   74 1    
    18    8   75 1    
    19    9   10 ar   
    20    9   14 ar   
    21   10   11 ar   
    22   10   76 1    
    23   11   12 ar   
    24   11   48 1    
    25   12   13 ar   
    26   12   77 1    
    27   13   14 ar   
    28   13   15 1    
    29   14   78 1    
    30   15   16 1    
    31   15   79 1    
    32   15   80 1    
    33   16   17 1    
    34   17   18 1    
    35   17   81 1    
    36   17   82 1    
    37   18   19 1    
    38   18   22 1    
    39   18   83 1    
    40   19   20 am   BACKBONE|DICT|INTERRES
    41   19   21 2    
    42   20   84 1    
    43   20   85 1    
    44   22   23 am   BACKBONE|DICT|INTERRES
    45   22   86 1    
    46   23   24 2    
    47   23   25 1    
    48   25   26 1    
    49   25   27 1    
    50   25   87 1    
    51   26   88 1    
    52   26   89 1    
    53   26   90 1    
    54   27   28 am   BACKBONE|DICT|INTERRES
    55   27   91 1    
    56   28   29 2    
    57   28   30 1    
    58   30   31 1    
    59   30   32 1    
    60   30   92 1    
    61   31   93 1    
    62   31   94 1    
    63   31   95 1    
    64   32   33 am   BACKBONE|DICT|INTERRES
    65   32   96 1    
    66   33   34 2    
    67   33   35 1    
    68   35   36 1    
    69   35   37 1    
    70   35   97 1    
    71   36   98 1    
    72   36   99 1    
    73   36  100 1    
    74   37   38 am   BACKBONE|DICT|INTERRES
    75   37  101 1    
    76   38   39 2    
    77   38   40 1    
    78   40   41 1    
    79   40   42 1    
    80   40  102 1    
    81   41  103 1    
    82   41  104 1    
    83   41  105 1    
    84   42   43 am   BACKBONE|DICT|INTERRES
    85   42  106 1    
    86   43   44 2    
    87   43   45 1    
    88   45   46 1    
    89   45   49 1    
    90   45  107 1    
    91   46   47 1    
    92   46  108 1    
    93   46  109 1    
    94   47   48 1    
    95   48  110 1    
    96   48  111 1    
    97   49   50 am   BACKBONE|DICT|INTERRES
    98   49  112 1    
    99   50   51 2    
   100   50   52 1    
   101   52   53 1    
   102   52   54 1    
   103   52  113 1    
   104   53  114 1    
   105   53  115 1    
   106   53  116 1    
   107   54   55 am   BACKBONE|DICT|INTERRES
   108   54  117 1    
   109   55   56 2    
   110   55   57 1    
   111   57   58 1    
   112   57   59 1    
   113   57  118 1    
   114   58  119 1    
   115   58  120 1    
   116   58  121 1    
   117   59   60 am   BACKBONE|DICT|INTERRES
   118   59  122 1    
   119   60   61 2    
   120   60   62 1    
   121   62   63 1    
   122   62   64 1    
   123   62  123 1    
   124   63  124 1    
   125   63  125 1    
   126   63  126 1    
   127   64   65 am   BACKBONE|DICT|INTERRES
   128   64  127 1    
   129   65   66 2    
@<TRIPOS>SUBSTRUCTURE
     1 UNK         1 GROUP             0       ****    0 ROOT    
