@<TRIPOS>MOLECULE
3R135
127   129    1
SMALL
USER_CHARGES


@<TRIPOS>ATOM
      1 CA        -80.1599   24.0247  -71.1044 C.3       0 UNK        -0.1998 
      2 C         -80.9814   25.1534  -71.7097 C.2       0 UNK         0.4909 
      3 O         -82.2100   25.1197  -71.6401 O.2       0 UNK        -0.5240 
      4 N         -80.3170   26.1456  -72.3102 N.am      1 UNK        -0.4739 
      5 CA        -80.9331   27.2570  -73.0317 C.3       1 UNK         0.0864 
      6 C6        -81.4955   28.3638  -72.0925 C.3       11 UNK        -0.0881 
      7 S7        -80.2927   29.5678  -71.4277 S.3       11 UNK        -0.2682 
      8 C8        -79.7098   28.7624  -69.9011 C.3       11 UNK         0.0289 
      9 C9        -78.2491   28.3553  -70.0253 C.ar      11 UNK        -0.0687 
     10 C10       -77.8754   27.0085  -70.0065 C.ar      11 UNK        -0.0823 
     11 C11       -76.5323   26.6419  -70.1462 C.ar      11 UNK        -0.0830 
     12 C12       -75.5596   27.6366  -70.2905 C.ar      11 UNK        -0.1021 
     13 C13       -75.9233   28.9851  -70.3177 C.ar      11 UNK        -0.0753 
     14 C14       -77.2659   29.3384  -70.1672 C.ar      11 UNK        -0.0933 
     15 C15       -74.8722   30.0601  -70.5435 C.3       11 UNK         0.0166 
     16 S16       -74.3659   30.1458  -72.2902 S.3       11 UNK        -0.2615 
     17 C17       -75.9317   30.6092  -73.1151 C.3       11 UNK        -0.0865 
     18 CA        -75.8054   30.7424  -74.6543 C.3       10 UNK         0.0862 
     19 C         -74.9893   32.0017  -75.0733 C.2       10 UNK         0.5551 
     20 N         -73.8282   31.8667  -75.7061 N.am      10 UNK        -0.7319 
     21 O         -75.4297   33.1227  -74.8311 O.2       10 UNK        -0.5018 
     22 N         -75.3354   29.4897  -75.2604 N.am      10 UNK        -0.4509 
     23 C         -75.5247   29.1370  -76.5363 C.2       10 UNK         0.4899 
     24 O         -76.3056   29.7178  -77.2906 O.2       10 UNK        -0.4839 
     25 CA        -74.7482   27.9147  -77.0632 C.3       9 UNK         0.0222 
     26 CB        -74.2309   28.1289  -78.5001 C.3       9 UNK        -0.1966 
     27 N         -73.6676   27.4526  -76.1840 N.am      9 UNK        -0.4218 
     28 C         -72.5530   28.0983  -75.8086 C.2       9 UNK         0.5020 
     29 O         -72.2826   29.2485  -76.1569 O.2       9 UNK        -0.5274 
     30 CA        -71.5927   27.3567  -74.8618 C.3       8 UNK         0.0270 
     31 CB        -71.8486   27.7730  -73.4044 C.3       8 UNK        -0.1976 
     32 N         -71.7124   25.8979  -74.9649 N.am      8 UNK        -0.4313 
     33 C         -70.7013   25.0555  -75.2182 C.2       8 UNK         0.5041 
     34 O         -69.5323   25.4117  -75.3747 O.2       8 UNK        -0.5577 
     35 CA        -71.0392   23.5531  -75.3113 C.3       7 UNK         0.0284 
     36 CB        -70.8265   22.8720  -73.9495 C.3       7 UNK        -0.1958 
     37 N         -72.4041   23.2866  -75.7736 N.am      7 UNK        -0.4454 
     38 C         -72.8667   23.5755  -76.9972 C.2       7 UNK         0.5089 
     39 O         -72.1557   23.9928  -77.9117 O.2       7 UNK        -0.5125 
     40 CA        -74.3772   23.3983  -77.2508 C.3       6 UNK         0.0408 
     41 CB        -74.6345   22.1284  -78.0768 C.3       6 UNK        -0.1791 
     42 N         -75.2573   23.3812  -76.0722 N.am      6 UNK        -0.4762 
     43 C         -75.3297   24.3020  -75.1003 C.2       6 UNK         0.5007 
     44 O         -74.5033   25.2039  -74.9645 O.2       6 UNK        -0.5032 
     45 CA        -76.5544   24.2293  -74.1620 C.3       5 UNK         0.0783 
     46 C46       -76.4732   25.2237  -72.9767 C.3       11 UNK        -0.0857 
     47 S47       -75.2817   24.6931  -71.6986 S.3       11 UNK        -0.2512 
     48 C48       -76.1348   25.1709  -70.1585 C.3       11 UNK         0.0225 
     49 N         -77.7776   24.4414  -74.9427 N.am      5 UNK        -0.4615 
     50 C         -78.3815   23.5005  -75.6814 C.2       4 UNK         0.5053 
     51 O         -78.0164   22.3245  -75.7103 O.2       4 UNK        -0.5105 
     52 CA        -79.5524   23.9462  -76.5704 C.3       4 UNK         0.0263 
     53 CB        -80.8466   24.0486  -75.7476 C.3       4 UNK        -0.1981 
     54 N         -79.3095   25.2151  -77.2610 N.am      4 UNK        -0.4224 
     55 C         -78.3465   25.4630  -78.1604 C.2       3 UNK         0.4895 
     56 O         -77.5263   24.6226  -78.5279 O.2       3 UNK        -0.5091 
     57 CA        -78.2699   26.8855  -78.7591 C.3       3 UNK         0.0250 
     58 CB        -79.1408   26.9997  -80.0250 C.3       3 UNK        -0.1996 
     59 N         -78.5500   27.9763  -77.8102 N.am      3 UNK        -0.4254 
     60 C         -79.6867   28.2366  -77.1525 C.2       2 UNK         0.5004 
     61 O         -80.7498   27.6409  -77.3449 O.2       2 UNK        -0.5226 
     62 CA        -79.6087   29.2827  -76.0298 C.3       2 UNK         0.0269 
     63 CB        -80.1972   30.6264  -76.4845 C.3       2 UNK        -0.1926 
     64 N         -80.3229   28.8061  -74.8422 N.am      2 UNK        -0.4687 
     65 C         -79.9580   27.7313  -74.1279 C.2       1 UNK         0.5165 
     66 O         -78.9161   27.0974  -74.3367 O.2       1 UNK        -0.5079 
     67 H67       -79.1141   24.0720  -71.4029 H         1 UNK         0.0900 
     68 H68       -80.2095   24.0652  -70.0167 H         1 UNK         0.0900 
     69 H69       -80.5541   23.0614  -71.4268 H         1 UNK         0.0900 
     70 H70       -79.3100   26.1236  -72.4014 H         1 UNK         0.2959 
     71 H71       -81.7809   26.8422  -73.5823 H         1 UNK         0.1079 
     72 H72       -82.2405   28.9432  -72.6399 H         1 UNK         0.0837 
     73 H73       -82.0521   27.9168  -71.2677 H         1 UNK         0.0837 
     74 H74       -80.3363   27.9030  -69.6584 H         1 UNK         0.0685 
     75 H75       -79.8150   29.4625  -69.0712 H         1 UNK         0.0685 
     76 H76       -78.6323   26.2467  -69.8878 H         1 UNK         0.1434 
     77 H77       -74.5216   27.3594  -70.4154 H         1 UNK         0.1329 
     78 H78       -77.5544   30.3805  -70.1923 H         1 UNK         0.1335 
     79 H79       -75.2395   31.0372  -70.2255 H         1 UNK         0.0680 
     80 H80       -73.9953   29.8468  -69.9305 H         1 UNK         0.0680 
     81 H81       -76.3099   31.5341  -72.6752 H         1 UNK         0.1032 
     82 H82       -76.6800   29.8471  -72.8918 H         1 UNK         0.1032 
     83 H83       -76.8144   30.9219  -75.0294 H         1 UNK         0.0461 
     84 H84       -73.3158   32.6911  -75.9750 H         1 UNK         0.3453 
     85 H85       -73.4365   30.9492  -75.8864 H         1 UNK         0.3453 
     86 H86       -74.6852   28.9573  -74.7016 H         1 UNK         0.2984 
     87 H87       -75.4693   27.0965  -77.0928 H         1 UNK         0.0554 
     88 H88       -75.0487   28.3452  -79.1883 H         1 UNK         0.0847 
     89 H89       -73.7229   27.2397  -78.8737 H         1 UNK         0.0847 
     90 H90       -73.5319   28.9639  -78.5577 H         1 UNK         0.0847 
     91 H91       -73.8562   26.5461  -75.7564 H         1 UNK         0.3141 
     92 H92       -70.5839   27.6732  -75.1345 H         1 UNK         0.0743 
     93 H93       -71.7597   28.8536  -73.2853 H         1 UNK         0.0784 
     94 H94       -72.8465   27.4845  -73.0703 H         1 UNK         0.0784 
     95 H95       -71.1257   27.3139  -72.7299 H         1 UNK         0.0784 
     96 H96       -72.6437   25.5061  -74.8512 H         1 UNK         0.3213 
     97 H97       -70.3487   23.1064  -76.0302 H         1 UNK         0.0855 
     98 H98       -71.5053   23.2643  -73.1909 H         1 UNK         0.0814 
     99 H99       -69.8090   23.0311  -73.5893 H         1 UNK         0.0814 
    100 H100      -70.9800   21.7947  -74.0151 H         1 UNK         0.0814 
    101 H101      -73.0651   22.9500  -75.0887 H         1 UNK         0.3105 
    102 H102      -74.6887   24.2552  -77.8516 H         1 UNK         0.0547 
    103 H103      -74.3986   21.2258  -77.5119 H         1 UNK         0.0837 
    104 H104      -74.0249   22.1168  -78.9816 H         1 UNK         0.0837 
    105 H105      -75.6764   22.0669  -78.3925 H         1 UNK         0.0837 
    106 H106      -76.0122   22.7035  -76.1009 H         1 UNK         0.3020 
    107 H107      -76.5830   23.2192  -73.7458 H         1 UNK         0.1245 
    108 H108      -77.4527   25.3043  -72.5087 H         1 UNK         0.0781 
    109 H109      -76.2264   26.2349  -73.3079 H         1 UNK         0.0781 
    110 H110      -75.4739   24.9743  -69.3133 H         1 UNK         0.0836 
    111 H111      -77.0052   24.5276  -70.0222 H         1 UNK         0.0836 
    112 H112      -78.1349   25.3925  -74.9656 H         1 UNK         0.3022 
    113 H113      -79.6937   23.1807  -77.3360 H         1 UNK         0.0747 
    114 H114      -80.7779   24.8199  -74.9808 H         1 UNK         0.0793 
    115 H115      -81.7022   24.2821  -76.3815 H         1 UNK         0.0793 
    116 H116      -81.0650   23.1062  -75.2433 H         1 UNK         0.0793 
    117 H117      -79.9591   25.9748  -77.0736 H         1 UNK         0.3047 
    118 H118      -77.2334   27.0300  -79.0671 H         1 UNK         0.0822 
    119 H119      -79.0346   27.9789  -80.4917 H         1 UNK         0.0807 
    120 H120      -80.1984   26.8425  -79.8116 H         1 UNK         0.0807 
    121 H121      -78.8477   26.2542  -80.7655 H         1 UNK         0.0807 
    122 H122      -77.7488   28.5667  -77.5990 H         1 UNK         0.2946 
    123 H123      -78.5639   29.4313  -75.7515 H         1 UNK         0.1144 
    124 H124      -80.1280   31.3770  -75.6968 H         1 UNK         0.0793 
    125 H125      -81.2458   30.5324  -76.7702 H         1 UNK         0.0793 
    126 H126      -79.6562   31.0142  -77.3488 H         1 UNK         0.0793 
    127 H127      -81.1958   29.2647  -74.6268 H         1 UNK         0.2896 
@<TRIPOS>BOND
     1    1    2 1    
     2    1   67 1    
     3    1   68 1    
     4    1   69 1    
     5    2    3 2    
     6    2    4 am   BACKBONE|DICT|INTERRES
     7    4    5 1    
     8    4   70 1    
     9    5    6 1    
    10    5   65 1    
    11    5   71 1    
    12    6    7 1    
    13    6   72 1    
    14    6   73 1    
    15    7    8 1    
    16    8    9 1    
    17    8   74 1    
    18    8   75 1    
    19    9   10 ar   
    20    9   14 ar   
    21   10   11 ar   
    22   10   76 1    
    23   11   12 ar   
    24   11   48 1    
    25   12   13 ar   
    26   12   77 1    
    27   13   14 ar   
    28   13   15 1    
    29   14   78 1    
    30   15   16 1    
    31   15   79 1    
    32   15   80 1    
    33   16   17 1    
    34   17   18 1    
    35   17   81 1    
    36   17   82 1    
    37   18   19 1    
    38   18   22 1    
    39   18   83 1    
    40   19   20 am   BACKBONE|DICT|INTERRES
    41   19   21 2    
    42   20   84 1    
    43   20   85 1    
    44   22   23 am   BACKBONE|DICT|INTERRES
    45   22   86 1    
    46   23   24 2    
    47   23   25 1    
    48   25   26 1    
    49   25   27 1    
    50   25   87 1    
    51   26   88 1    
    52   26   89 1    
    53   26   90 1    
    54   27   28 am   BACKBONE|DICT|INTERRES
    55   27   91 1    
    56   28   29 2    
    57   28   30 1    
    58   30   31 1    
    59   30   32 1    
    60   30   92 1    
    61   31   93 1    
    62   31   94 1    
    63   31   95 1    
    64   32   33 am   BACKBONE|DICT|INTERRES
    65   32   96 1    
    66   33   34 2    
    67   33   35 1    
    68   35   36 1    
    69   35   37 1    
    70   35   97 1    
    71   36   98 1    
    72   36   99 1    
    73   36  100 1    
    74   37   38 am   BACKBONE|DICT|INTERRES
    75   37  101 1    
    76   38   39 2    
    77   38   40 1    
    78   40   41 1    
    79   40   42 1    
    80   40  102 1    
    81   41  103 1    
    82   41  104 1    
    83   41  105 1    
    84   42   43 am   BACKBONE|DICT|INTERRES
    85   42  106 1    
    86   43   44 2    
    87   43   45 1    
    88   45   46 1    
    89   45   49 1    
    90   45  107 1    
    91   46   47 1    
    92   46  108 1    
    93   46  109 1    
    94   47   48 1    
    95   48  110 1    
    96   48  111 1    
    97   49   50 am   BACKBONE|DICT|INTERRES
    98   49  112 1    
    99   50   51 2    
   100   50   52 1    
   101   52   53 1    
   102   52   54 1    
   103   52  113 1    
   104   53  114 1    
   105   53  115 1    
   106   53  116 1    
   107   54   55 am   BACKBONE|DICT|INTERRES
   108   54  117 1    
   109   55   56 2    
   110   55   57 1    
   111   57   58 1    
   112   57   59 1    
   113   57  118 1    
   114   58  119 1    
   115   58  120 1    
   116   58  121 1    
   117   59   60 am   BACKBONE|DICT|INTERRES
   118   59  122 1    
   119   60   61 2    
   120   60   62 1    
   121   62   63 1    
   122   62   64 1    
   123   62  123 1    
   124   63  124 1    
   125   63  125 1    
   126   63  126 1    
   127   64   65 am   BACKBONE|DICT|INTERRES
   128   64  127 1    
   129   65   66 2    
@<TRIPOS>SUBSTRUCTURE
     1 UNK         1 GROUP             0       ****    0 ROOT    
