@<TRIPOS>MOLECULE
3R135
127   129    1
SMALL
USER_CHARGES


@<TRIPOS>ATOM
      1 CA        -77.9456   31.3483  -74.8980 C.3       0 UNK        -0.1998 
      2 C         -79.4701   31.3726  -74.8540 C.2       0 UNK         0.4909 
      3 O         -80.0676   32.2818  -75.4263 O.2       0 UNK        -0.5240 
      4 N         -80.1543   30.4247  -74.1958 N.am      1 UNK        -0.4739 
      5 CA        -79.6401   29.2416  -73.4894 C.3       1 UNK         0.0864 
      6 C6        -80.7961   28.4685  -72.8017 C.3       11 UNK        -0.0881 
      7 S7        -81.4179   29.3688  -71.3377 S.3       11 UNK        -0.2682 
      8 C8        -80.9789   28.2574  -69.9545 C.3       11 UNK         0.0289 
      9 C9        -79.5398   27.7653  -70.0333 C.ar      11 UNK        -0.0687 
     10 C10       -79.2730   26.4166  -70.2889 C.ar      11 UNK        -0.0823 
     11 C11       -77.9616   25.9607  -70.4517 C.ar      11 UNK        -0.0830 
     12 C12       -76.9083   26.8790  -70.3331 C.ar      11 UNK        -0.1021 
     13 C13       -77.1618   28.2303  -70.0788 C.ar      11 UNK        -0.0753 
     14 C14       -78.4786   28.6639  -69.9065 C.ar      11 UNK        -0.0933 
     15 C15       -76.0183   29.2319  -70.0485 C.3       11 UNK         0.0166 
     16 S16       -76.0941   30.3098  -71.5121 S.3       11 UNK        -0.2615 
     17 C17       -74.3737   30.8962  -71.6530 C.3       11 UNK        -0.0865 
     18 CA        -74.0452   31.3792  -73.0917 C.3       10 UNK         0.0862 
     19 C         -72.6320   32.0326  -73.1584 C.2       10 UNK         0.5551 
     20 N         -71.7127   31.5770  -74.0016 N.am      10 UNK        -0.7319 
     21 O         -72.3655   32.9840  -72.4281 O.2       10 UNK        -0.5018 
     22 N         -74.2823   30.3215  -74.0889 N.am      10 UNK        -0.4509 
     23 C         -74.5099   30.5295  -75.3912 C.2       10 UNK         0.4899 
     24 O         -74.6095   31.6479  -75.8983 O.2       10 UNK        -0.4839 
     25 CA        -74.6361   29.2665  -76.2690 C.3       9 UNK         0.0222 
     26 CB        -74.5561   29.5751  -77.7777 C.3       9 UNK        -0.1966 
     27 N         -73.6787   28.2088  -75.9177 N.am      9 UNK        -0.4218 
     28 C         -72.3434   28.3121  -75.8100 C.2       9 UNK         0.5020 
     29 O         -71.7135   29.3572  -75.9758 O.2       9 UNK        -0.5274 
     30 CA        -71.5825   27.0340  -75.4336 C.3       8 UNK         0.0270 
     31 CB        -71.7614   26.7202  -73.9377 C.3       8 UNK        -0.1976 
     32 N         -72.0420   25.8977  -76.2329 N.am      8 UNK        -0.4313 
     33 C         -71.4254   25.4287  -77.3267 C.2       8 UNK         0.5041 
     34 O         -70.3579   25.8701  -77.7545 O.2       8 UNK        -0.5577 
     35 CA        -72.1004   24.2607  -78.0736 C.3       7 UNK         0.0284 
     36 CB        -71.4945   22.9194  -77.6292 C.3       7 UNK        -0.1958 
     37 N         -73.5535   24.2153  -77.8915 N.am      7 UNK        -0.4454 
     38 C         -74.4126   25.1041  -78.4089 C.2       7 UNK         0.5089 
     39 O         -74.0821   26.0030  -79.1818 O.2       7 UNK        -0.5125 
     40 CA        -75.8862   24.9960  -77.9703 C.3       6 UNK         0.0408 
     41 CB        -76.7063   24.2753  -79.0507 C.3       6 UNK        -0.1791 
     42 N         -76.1082   24.3508  -76.6639 N.am      6 UNK        -0.4762 
     43 C         -75.5878   24.7702  -75.4966 C.2       6 UNK         0.5007 
     44 O         -74.8188   25.7292  -75.4259 O.2       6 UNK        -0.5032 
     45 CA        -75.9313   23.9944  -74.2083 C.3       5 UNK         0.0783 
     46 C46       -76.0482   24.9391  -72.9863 C.3       11 UNK        -0.0857 
     47 S47       -76.0970   24.0248  -71.4080 S.3       11 UNK        -0.2512 
     48 C48       -77.7476   24.4770  -70.7700 C.3       11 UNK         0.0225 
     49 N         -77.1395   23.1861  -74.3853 N.am      5 UNK        -0.4615 
     50 C         -77.1722   21.8482  -74.4314 C.2       4 UNK         0.5053 
     51 O         -76.1723   21.1359  -74.3392 O.2       4 UNK        -0.5105 
     52 CA        -78.5475   21.1791  -74.6234 C.3       4 UNK         0.0263 
     53 CB        -79.1013   20.7069  -73.2692 C.3       4 UNK        -0.1981 
     54 N         -79.5424   22.0368  -75.2741 N.am      4 UNK        -0.4224 
     55 C         -79.4470   22.5151  -76.5220 C.2       3 UNK         0.4895 
     56 O         -78.5203   22.2437  -77.2858 O.2       3 UNK        -0.5091 
     57 CA        -80.5311   23.5071  -76.9857 C.3       3 UNK         0.0250 
     58 CB        -81.8082   23.5018  -76.1136 C.3       3 UNK        -0.1996 
     59 N         -79.9950   24.8700  -77.1036 N.am      3 UNK        -0.4254 
     60 C         -79.3891   25.5856  -76.1426 C.2       2 UNK         0.5004 
     61 O         -79.2125   25.1679  -74.9958 O.2       2 UNK        -0.5226 
     62 CA        -78.8819   26.9939  -76.5148 C.3       2 UNK         0.0269 
     63 CB        -79.2157   27.4384  -77.9536 C.3       2 UNK        -0.1926 
     64 N         -79.4192   27.9762  -75.5745 N.am      2 UNK        -0.4687 
     65 C         -78.8395   28.3029  -74.4121 C.2       1 UNK         0.5165 
     66 O         -77.7150   27.9331  -74.0777 O.2       1 UNK        -0.5079 
     67 H67       -77.5120   30.9538  -73.9817 H         1 UNK         0.0900 
     68 H68       -77.5528   32.3559  -75.0330 H         1 UNK         0.0900 
     69 H69       -77.6037   30.7422  -75.7362 H         1 UNK         0.0900 
     70 H70       -81.1599   30.5147  -74.1718 H         1 UNK         0.2959 
     71 H71       -78.9489   29.5825  -72.7155 H         1 UNK         0.1079 
     72 H72       -81.6268   28.3195  -73.4939 H         1 UNK         0.0837 
     73 H73       -80.4870   27.4636  -72.5120 H         1 UNK         0.0837 
     74 H74       -81.1286   28.7864  -69.0124 H         1 UNK         0.0685 
     75 H75       -81.6747   27.4170  -69.9479 H         1 UNK         0.0685 
     76 H76       -80.0947   25.7207  -70.3927 H         1 UNK         0.1434 
     77 H77       -75.8855   26.5575  -70.4639 H         1 UNK         0.1329 
     78 H78       -78.6804   29.7116  -69.7296 H         1 UNK         0.1335 
     79 H79       -75.0595   28.7124  -70.0181 H         1 UNK         0.0680 
     80 H80       -76.0761   29.8391  -69.1440 H         1 UNK         0.0680 
     81 H81       -73.6881   30.0996  -71.3590 H         1 UNK         0.1032 
     82 H82       -74.2360   31.7033  -70.9308 H         1 UNK         0.1032 
     83 H83       -74.7419   32.1891  -73.3178 H         1 UNK         0.0461 
     84 H84       -71.9094   30.8113  -74.6375 H         1 UNK         0.3453 
     85 H85       -70.8092   32.0217  -74.0254 H         1 UNK         0.3453 
     86 H86       -74.2309   29.3720  -73.7521 H         1 UNK         0.2984 
     87 H87       -75.6270   28.8558  -76.0677 H         1 UNK         0.0554 
     88 H88       -74.6875   28.6721  -78.3740 H         1 UNK         0.0847 
     89 H89       -73.5961   30.0172  -78.0466 H         1 UNK         0.0847 
     90 H90       -75.3355   30.2765  -78.0780 H         1 UNK         0.0847 
     91 H91       -74.1003   27.3015  -75.7185 H         1 UNK         0.3141 
     92 H92       -70.5198   27.2122  -75.6123 H         1 UNK         0.0743 
     93 H93       -72.8024   26.5220  -73.6801 H         1 UNK         0.0784 
     94 H94       -71.1751   25.8486  -73.6460 H         1 UNK         0.0784 
     95 H95       -71.4261   27.5559  -73.3217 H         1 UNK         0.0784 
     96 H96       -72.9506   25.5185  -75.9893 H         1 UNK         0.3213 
     97 H97       -71.8958   24.3922  -79.1386 H         1 UNK         0.0855 
     98 H98       -71.6762   22.7229  -76.5717 H         1 UNK         0.0814 
     99 H99       -70.4140   22.9114  -77.7802 H         1 UNK         0.0814 
    100 H100      -71.9051   22.0879  -78.2024 H         1 UNK         0.0814 
    101 H101      -73.9211   23.4943  -77.2880 H         1 UNK         0.3105 
    102 H102      -76.2573   26.0189  -77.8946 H         1 UNK         0.0547 
    103 H103      -76.5470   24.7251  -80.0318 H         1 UNK         0.0837 
    104 H104      -76.4351   23.2217  -79.1269 H         1 UNK         0.0837 
    105 H105      -77.7741   24.3311  -78.8459 H         1 UNK         0.0837 
    106 H106      -76.7220   23.5444  -76.6575 H         1 UNK         0.3020 
    107 H107      -75.0703   23.3452  -74.0347 H         1 UNK         0.1245 
    108 H108      -76.9302   25.5747  -73.0831 H         1 UNK         0.0781 
    109 H109      -75.1954   25.6171  -72.9229 H         1 UNK         0.0781 
    110 H110      -78.4903   24.1510  -71.5004 H         1 UNK         0.0836 
    111 H111      -77.9326   23.9002  -69.8631 H         1 UNK         0.0836 
    112 H112      -78.0026   23.7129  -74.4963 H         1 UNK         0.3022 
    113 H113      -78.3975   20.3036  -75.2587 H         1 UNK         0.0747 
    114 H114      -80.0355   20.1582  -73.3904 H         1 UNK         0.0793 
    115 H115      -78.3974   20.0382  -72.7715 H         1 UNK         0.0793 
    116 H116      -79.2861   21.5443  -72.5949 H         1 UNK         0.0793 
    117 H117      -80.3192   22.3435  -74.7067 H         1 UNK         0.3047 
    118 H118      -80.8171   23.1935  -77.9910 H         1 UNK         0.0822 
    119 H119      -82.5784   24.1361  -76.5525 H         1 UNK         0.0807 
    120 H120      -81.6262   23.8666  -75.1021 H         1 UNK         0.0807 
    121 H121      -82.2304   22.4988  -76.0370 H         1 UNK         0.0807 
    122 H122      -80.0789   25.2890  -78.0190 H         1 UNK         0.2946 
    123 H123      -77.7946   26.9655  -76.4194 H         1 UNK         0.1144 
    124 H124      -78.7736   26.7686  -78.6924 H         1 UNK         0.0793 
    125 H125      -78.8136   28.4318  -78.1545 H         1 UNK         0.0793 
    126 H126      -80.2909   27.4789  -78.1329 H         1 UNK         0.0793 
    127 H127      -80.3431   28.3347  -75.7689 H         1 UNK         0.2896 
@<TRIPOS>BOND
     1    1    2 1    
     2    1   67 1    
     3    1   68 1    
     4    1   69 1    
     5    2    3 2    
     6    2    4 am   BACKBONE|DICT|INTERRES
     7    4    5 1    
     8    4   70 1    
     9    5    6 1    
    10    5   65 1    
    11    5   71 1    
    12    6    7 1    
    13    6   72 1    
    14    6   73 1    
    15    7    8 1    
    16    8    9 1    
    17    8   74 1    
    18    8   75 1    
    19    9   10 ar   
    20    9   14 ar   
    21   10   11 ar   
    22   10   76 1    
    23   11   12 ar   
    24   11   48 1    
    25   12   13 ar   
    26   12   77 1    
    27   13   14 ar   
    28   13   15 1    
    29   14   78 1    
    30   15   16 1    
    31   15   79 1    
    32   15   80 1    
    33   16   17 1    
    34   17   18 1    
    35   17   81 1    
    36   17   82 1    
    37   18   19 1    
    38   18   22 1    
    39   18   83 1    
    40   19   20 am   BACKBONE|DICT|INTERRES
    41   19   21 2    
    42   20   84 1    
    43   20   85 1    
    44   22   23 am   BACKBONE|DICT|INTERRES
    45   22   86 1    
    46   23   24 2    
    47   23   25 1    
    48   25   26 1    
    49   25   27 1    
    50   25   87 1    
    51   26   88 1    
    52   26   89 1    
    53   26   90 1    
    54   27   28 am   BACKBONE|DICT|INTERRES
    55   27   91 1    
    56   28   29 2    
    57   28   30 1    
    58   30   31 1    
    59   30   32 1    
    60   30   92 1    
    61   31   93 1    
    62   31   94 1    
    63   31   95 1    
    64   32   33 am   BACKBONE|DICT|INTERRES
    65   32   96 1    
    66   33   34 2    
    67   33   35 1    
    68   35   36 1    
    69   35   37 1    
    70   35   97 1    
    71   36   98 1    
    72   36   99 1    
    73   36  100 1    
    74   37   38 am   BACKBONE|DICT|INTERRES
    75   37  101 1    
    76   38   39 2    
    77   38   40 1    
    78   40   41 1    
    79   40   42 1    
    80   40  102 1    
    81   41  103 1    
    82   41  104 1    
    83   41  105 1    
    84   42   43 am   BACKBONE|DICT|INTERRES
    85   42  106 1    
    86   43   44 2    
    87   43   45 1    
    88   45   46 1    
    89   45   49 1    
    90   45  107 1    
    91   46   47 1    
    92   46  108 1    
    93   46  109 1    
    94   47   48 1    
    95   48  110 1    
    96   48  111 1    
    97   49   50 am   BACKBONE|DICT|INTERRES
    98   49  112 1    
    99   50   51 2    
   100   50   52 1    
   101   52   53 1    
   102   52   54 1    
   103   52  113 1    
   104   53  114 1    
   105   53  115 1    
   106   53  116 1    
   107   54   55 am   BACKBONE|DICT|INTERRES
   108   54  117 1    
   109   55   56 2    
   110   55   57 1    
   111   57   58 1    
   112   57   59 1    
   113   57  118 1    
   114   58  119 1    
   115   58  120 1    
   116   58  121 1    
   117   59   60 am   BACKBONE|DICT|INTERRES
   118   59  122 1    
   119   60   61 2    
   120   60   62 1    
   121   62   63 1    
   122   62   64 1    
   123   62  123 1    
   124   63  124 1    
   125   63  125 1    
   126   63  126 1    
   127   64   65 am   BACKBONE|DICT|INTERRES
   128   64  127 1    
   129   65   66 2    
@<TRIPOS>SUBSTRUCTURE
     1 UNK         1 GROUP             0       ****    0 ROOT    
