@<TRIPOS>MOLECULE
3R135
127   129    1
SMALL
USER_CHARGES


@<TRIPOS>ATOM
      1 CA        -76.8719   25.8227  -71.3911 C.3       0 UNK        -0.1998 
      2 C         -78.3114   25.3441  -71.4263 C.2       0 UNK         0.4909 
      3 O         -78.5700   24.1508  -71.2618 O.2       0 UNK        -0.5240 
      4 N         -79.2544   26.2702  -71.6357 N.am      1 UNK        -0.4739 
      5 CA        -80.6945   26.0007  -71.6679 C.3       1 UNK         0.0864 
      6 C6        -81.5328   27.3007  -71.6919 C.3       11 UNK        -0.0881 
      7 S7        -81.2960   28.2514  -70.1494 S.3       11 UNK        -0.2682 
      8 C8        -80.9011   29.9255  -70.7509 C.3       11 UNK         0.0289 
      9 C9        -79.6247   29.9876  -71.5815 C.ar      11 UNK        -0.0687 
     10 C10       -79.6709   30.4846  -72.8871 C.ar      11 UNK        -0.0823 
     11 C11       -78.5065   30.5844  -73.6531 C.ar      11 UNK        -0.0830 
     12 C12       -77.2897   30.1578  -73.1152 C.ar      11 UNK        -0.1021 
     13 C13       -77.2259   29.6762  -71.8040 C.ar      11 UNK        -0.0753 
     14 C14       -78.3952   29.5963  -71.0397 C.ar      11 UNK        -0.0933 
     15 C15       -75.8896   29.2463  -71.2207 C.3       11 UNK         0.0166 
     16 S16       -74.7863   30.6659  -70.9484 S.3       11 UNK        -0.2615 
     17 C17       -73.2375   29.8054  -70.5104 C.3       11 UNK        -0.0865 
     18 CA        -72.0980   30.0287  -71.5407 C.3       10 UNK         0.0862 
     19 C         -70.7714   29.3969  -71.0213 C.2       10 UNK         0.5551 
     20 N         -70.2189   28.3769  -71.6670 N.am      10 UNK        -0.7319 
     21 O         -70.2348   29.8448  -70.0109 O.2       10 UNK        -0.5018 
     22 N         -72.4899   29.6261  -72.9049 N.am      10 UNK        -0.4509 
     23 C         -71.8380   29.9623  -74.0255 C.2       10 UNK         0.4899 
     24 O         -70.8376   30.6814  -74.0386 O.2       10 UNK        -0.4839 
     25 CA        -72.3846   29.3811  -75.3465 C.3       9 UNK         0.0222 
     26 CB        -71.5180   29.7587  -76.5633 C.3       9 UNK        -0.1966 
     27 N         -72.5153   27.9215  -75.2970 N.am      9 UNK        -0.4218 
     28 C         -73.5203   27.2555  -74.7176 C.2       9 UNK         0.5020 
     29 O         -74.4677   27.8082  -74.1568 O.2       9 UNK        -0.5274 
     30 CA        -73.4409   25.7250  -74.7787 C.3       8 UNK         0.0270 
     31 CB        -74.4461   25.0426  -73.8372 C.3       8 UNK        -0.1976 
     32 N         -73.7037   25.2808  -76.1420 N.am      8 UNK        -0.4313 
     33 C         -72.7655   25.0044  -77.0544 C.2       8 UNK         0.5041 
     34 O         -71.5562   25.1189  -76.8492 O.2       8 UNK        -0.5577 
     35 CA        -73.2616   24.5442  -78.4294 C.3       7 UNK         0.0284 
     36 CB        -73.9421   23.1679  -78.3410 C.3       7 UNK        -0.1958 
     37 N         -74.2008   25.5209  -78.9764 N.am      7 UNK        -0.4454 
     38 C         -73.8929   26.4292  -79.9115 C.2       7 UNK         0.5089 
     39 O         -72.7926   26.5093  -80.4588 O.2       7 UNK        -0.5125 
     40 CA        -75.0007   27.4174  -80.3190 C.3       6 UNK         0.0408 
     41 CB        -75.7236   26.9192  -81.5806 C.3       6 UNK        -0.1791 
     42 N         -75.9866   27.6547  -79.2626 N.am      6 UNK        -0.4762 
     43 C         -75.7429   28.3180  -78.1223 C.2       6 UNK         0.5007 
     44 O         -74.6631   28.8431  -77.8575 O.2       6 UNK        -0.5032 
     45 CA        -76.9066   28.4226  -77.1157 C.3       5 UNK         0.0783 
     46 C46       -77.6403   29.7708  -77.3289 C.3       11 UNK        -0.0857 
     47 S47       -79.1184   29.9762  -76.2759 S.3       11 UNK        -0.2512 
     48 C48       -78.5670   31.1940  -75.0435 C.3       11 UNK         0.0225 
     49 N         -77.8392   27.2889  -77.1746 N.am      5 UNK        -0.4615 
     50 C         -77.5470   25.9989  -76.9748 C.2       4 UNK         0.5053 
     51 O         -76.4026   25.5667  -76.8245 O.2       4 UNK        -0.5105 
     52 CA        -78.7510   25.0478  -77.0053 C.3       4 UNK         0.0263 
     53 CB        -78.9052   24.3824  -78.3876 C.3       4 UNK        -0.1981 
     54 N         -78.7344   24.0749  -75.9086 N.am      4 UNK        -0.4224 
     55 C         -77.9891   22.9665  -75.7618 C.2       3 UNK         0.4895 
     56 O         -77.1667   22.5621  -76.5832 O.2       3 UNK        -0.5091 
     57 CA        -78.2090   22.1358  -74.4797 C.3       3 UNK         0.0250 
     58 CB        -77.0062   22.2800  -73.5342 C.3       3 UNK        -0.1996 
     59 N         -79.4423   22.4744  -73.7582 N.am      3 UNK        -0.4254 
     60 C         -80.6792   22.2012  -74.2055 C.2       2 UNK         0.5004 
     61 O         -80.9007   21.5385  -75.2195 O.2       2 UNK        -0.5226 
     62 CA        -81.8775   22.7752  -73.4232 C.3       2 UNK         0.0269 
     63 CB        -82.5955   21.6594  -72.6457 C.3       2 UNK        -0.1926 
     64 N         -81.5428   23.8607  -72.4953 N.am      2 UNK        -0.4687 
     65 C         -81.0472   25.0589  -72.8363 C.2       1 UNK         0.5165 
     66 O         -80.8178   25.4026  -73.9986 O.2       1 UNK        -0.5079 
     67 H67       -76.6827   26.3768  -70.4729 H         1 UNK         0.0900 
     68 H68       -76.6571   26.4664  -72.2439 H         1 UNK         0.0900 
     69 H69       -76.1887   24.9749  -71.4177 H         1 UNK         0.0900 
     70 H70       -78.9906   27.2356  -71.7772 H         1 UNK         0.2959 
     71 H71       -80.9354   25.4786  -70.7387 H         1 UNK         0.1079 
     72 H72       -82.5966   27.0718  -71.7793 H         1 UNK         0.0837 
     73 H73       -81.2786   27.9091  -72.5619 H         1 UNK         0.0837 
     74 H74       -80.7905   30.5874  -69.8911 H         1 UNK         0.0685 
     75 H75       -81.7548   30.3014  -71.3170 H         1 UNK         0.0685 
     76 H76       -80.6127   30.8115  -73.3069 H         1 UNK         0.1434 
     77 H77       -76.3840   30.2239  -73.7035 H         1 UNK         0.1329 
     78 H78       -78.3530   29.2309  -70.0225 H         1 UNK         0.1335 
     79 H79       -76.0307   28.7245  -70.2733 H         1 UNK         0.0680 
     80 H80       -75.4130   28.5394  -71.8980 H         1 UNK         0.0680 
     81 H81       -73.4267   28.7381  -70.3809 H         1 UNK         0.1032 
     82 H82       -72.9350   30.1728  -69.5275 H         1 UNK         0.1032 
     83 H83       -71.9111   31.1037  -71.5801 H         1 UNK         0.0461 
     84 H84       -70.6456   28.0119  -72.5023 H         1 UNK         0.3453 
     85 H85       -69.3594   27.9801  -71.3214 H         1 UNK         0.3453 
     86 H86       -73.3132   29.0409  -72.9943 H         1 UNK         0.2984 
     87 H87       -73.3745   29.8157  -75.5011 H         1 UNK         0.0554 
     88 H88       -71.4444   30.8417  -76.6705 H         1 UNK         0.0847 
     89 H89       -71.9471   29.3741  -77.4890 H         1 UNK         0.0847 
     90 H90       -70.5034   29.3683  -76.4756 H         1 UNK         0.0847 
     91 H91       -71.7834   27.3828  -75.7414 H         1 UNK         0.3141 
     92 H92       -72.4382   25.4262  -74.4655 H         1 UNK         0.0743 
     93 H93       -74.2780   25.3545  -72.8062 H         1 UNK         0.0784 
     94 H94       -75.4759   25.2893  -74.0998 H         1 UNK         0.0784 
     95 H95       -74.3434   23.9581  -73.8699 H         1 UNK         0.0784 
     96 H96       -74.6874   25.2435  -76.4105 H         1 UNK         0.3213 
     97 H97       -72.3915   24.4432  -79.0820 H         1 UNK         0.0855 
     98 H98       -74.8385   23.1947  -77.7207 H         1 UNK         0.0814 
     99 H99       -73.2687   22.4259  -77.9101 H         1 UNK         0.0814 
    100 H100      -74.2328   22.8079  -79.3279 H         1 UNK         0.0814 
    101 H101      -75.1141   25.5677  -78.5399 H         1 UNK         0.3105 
    102 H102      -74.5216   28.3701  -80.5546 H         1 UNK         0.0547 
    103 H103      -75.0174   26.7590  -82.3966 H         1 UNK         0.0837 
    104 H104      -76.2380   25.9733  -81.4059 H         1 UNK         0.0837 
    105 H105      -76.4592   27.6437  -81.9303 H         1 UNK         0.0837 
    106 H106      -76.9096   27.2689  -79.4006 H         1 UNK         0.3020 
    107 H107      -76.4634   28.4213  -76.1165 H         1 UNK         0.1245 
    108 H108      -77.9798   29.8553  -78.3635 H         1 UNK         0.0781 
    109 H109      -76.9539   30.6058  -77.1788 H         1 UNK         0.0781 
    110 H110      -79.2687   32.0296  -75.0438 H         1 UNK         0.0836 
    111 H111      -77.6005   31.6226  -75.3103 H         1 UNK         0.0836 
    112 H112      -78.8082   27.5500  -77.2905 H         1 UNK         0.3022 
    113 H113      -79.6505   25.6407  -76.8295 H         1 UNK         0.0747 
    114 H114      -79.7403   23.6819  -78.4004 H         1 UNK         0.0793 
    115 H115      -78.0066   23.8403  -78.6841 H         1 UNK         0.0793 
    116 H116      -79.0964   25.1295  -79.1586 H         1 UNK         0.0793 
    117 H117      -79.3617   24.3080  -75.1467 H         1 UNK         0.3047 
    118 H118      -78.2758   21.0886  -74.7827 H         1 UNK         0.0822 
    119 H119      -77.1327   21.6826  -72.6311 H         1 UNK         0.0807 
    120 H120      -76.8556   23.3161  -73.2340 H         1 UNK         0.0807 
    121 H121      -76.0876   21.9464  -74.0189 H         1 UNK         0.0807 
    122 H122      -79.3368   23.0079  -72.9012 H         1 UNK         0.2946 
    123 H123      -82.5712   23.1783  -74.1647 H         1 UNK         0.1144 
    124 H124      -82.8930   20.8474  -73.3110 H         1 UNK         0.0793 
    125 H125      -83.5020   22.0285  -72.1656 H         1 UNK         0.0793 
    126 H126      -81.9556   21.2298  -71.8739 H         1 UNK         0.0793 
    127 H127      -81.6595   23.6522  -71.5135 H         1 UNK         0.2896 
@<TRIPOS>BOND
     1    1    2 1    
     2    1   67 1    
     3    1   68 1    
     4    1   69 1    
     5    2    3 2    
     6    2    4 am   BACKBONE|DICT|INTERRES
     7    4    5 1    
     8    4   70 1    
     9    5    6 1    
    10    5   65 1    
    11    5   71 1    
    12    6    7 1    
    13    6   72 1    
    14    6   73 1    
    15    7    8 1    
    16    8    9 1    
    17    8   74 1    
    18    8   75 1    
    19    9   10 ar   
    20    9   14 ar   
    21   10   11 ar   
    22   10   76 1    
    23   11   12 ar   
    24   11   48 1    
    25   12   13 ar   
    26   12   77 1    
    27   13   14 ar   
    28   13   15 1    
    29   14   78 1    
    30   15   16 1    
    31   15   79 1    
    32   15   80 1    
    33   16   17 1    
    34   17   18 1    
    35   17   81 1    
    36   17   82 1    
    37   18   19 1    
    38   18   22 1    
    39   18   83 1    
    40   19   20 am   BACKBONE|DICT|INTERRES
    41   19   21 2    
    42   20   84 1    
    43   20   85 1    
    44   22   23 am   BACKBONE|DICT|INTERRES
    45   22   86 1    
    46   23   24 2    
    47   23   25 1    
    48   25   26 1    
    49   25   27 1    
    50   25   87 1    
    51   26   88 1    
    52   26   89 1    
    53   26   90 1    
    54   27   28 am   BACKBONE|DICT|INTERRES
    55   27   91 1    
    56   28   29 2    
    57   28   30 1    
    58   30   31 1    
    59   30   32 1    
    60   30   92 1    
    61   31   93 1    
    62   31   94 1    
    63   31   95 1    
    64   32   33 am   BACKBONE|DICT|INTERRES
    65   32   96 1    
    66   33   34 2    
    67   33   35 1    
    68   35   36 1    
    69   35   37 1    
    70   35   97 1    
    71   36   98 1    
    72   36   99 1    
    73   36  100 1    
    74   37   38 am   BACKBONE|DICT|INTERRES
    75   37  101 1    
    76   38   39 2    
    77   38   40 1    
    78   40   41 1    
    79   40   42 1    
    80   40  102 1    
    81   41  103 1    
    82   41  104 1    
    83   41  105 1    
    84   42   43 am   BACKBONE|DICT|INTERRES
    85   42  106 1    
    86   43   44 2    
    87   43   45 1    
    88   45   46 1    
    89   45   49 1    
    90   45  107 1    
    91   46   47 1    
    92   46  108 1    
    93   46  109 1    
    94   47   48 1    
    95   48  110 1    
    96   48  111 1    
    97   49   50 am   BACKBONE|DICT|INTERRES
    98   49  112 1    
    99   50   51 2    
   100   50   52 1    
   101   52   53 1    
   102   52   54 1    
   103   52  113 1    
   104   53  114 1    
   105   53  115 1    
   106   53  116 1    
   107   54   55 am   BACKBONE|DICT|INTERRES
   108   54  117 1    
   109   55   56 2    
   110   55   57 1    
   111   57   58 1    
   112   57   59 1    
   113   57  118 1    
   114   58  119 1    
   115   58  120 1    
   116   58  121 1    
   117   59   60 am   BACKBONE|DICT|INTERRES
   118   59  122 1    
   119   60   61 2    
   120   60   62 1    
   121   62   63 1    
   122   62   64 1    
   123   62  123 1    
   124   63  124 1    
   125   63  125 1    
   126   63  126 1    
   127   64   65 am   BACKBONE|DICT|INTERRES
   128   64  127 1    
   129   65   66 2    
@<TRIPOS>SUBSTRUCTURE
     1 UNK         1 GROUP             0       ****    0 ROOT    
