@<TRIPOS>MOLECULE
3R135
127   129    1
SMALL
USER_CHARGES


@<TRIPOS>ATOM
      1 CA        -76.7827   25.7871  -71.0215 C.3       0 UNK        -0.1998 
      2 C         -78.2253   25.3556  -70.8050 C.2       0 UNK         0.4909 
      3 O         -78.5857   24.9559  -69.6993 O.2       0 UNK        -0.5240 
      4 N         -79.0538   25.4350  -71.8524 N.am      1 UNK        -0.4739 
      5 CA        -80.5038   25.1840  -71.8079 C.3       1 UNK         0.0864 
      6 C6        -81.2904   26.2145  -72.6660 C.3       11 UNK        -0.0881 
      7 S7        -80.9124   27.9464  -72.2328 S.3       11 UNK        -0.2682 
      8 C8        -79.6324   28.3197  -73.4780 C.3       11 UNK         0.0289 
      9 C9        -78.6662   29.4046  -73.0246 C.ar      11 UNK        -0.0687 
     10 C10       -78.3539   30.4616  -73.8829 C.ar      11 UNK        -0.0823 
     11 C11       -77.4109   31.4230  -73.5098 C.ar      11 UNK        -0.0830 
     12 C12       -76.8210   31.3556  -72.2446 C.ar      11 UNK        -0.1021 
     13 C13       -77.1057   30.2914  -71.3850 C.ar      11 UNK        -0.0753 
     14 C14       -78.0273   29.3188  -71.7821 C.ar      11 UNK        -0.0933 
     15 C15       -76.4048   30.1761  -70.0385 C.3       11 UNK         0.0166 
     16 S16       -74.8359   29.2535  -70.1656 S.3       11 UNK        -0.2615 
     17 C17       -73.7007   30.5174  -70.8391 C.3       11 UNK        -0.0865 
     18 CA        -73.4883   30.4238  -72.3784 C.3       10 UNK         0.0862 
     19 C         -72.7933   31.6897  -72.9618 C.2       10 UNK         0.5551 
     20 N         -71.9384   31.5705  -73.9719 N.am      10 UNK        -0.7319 
     21 O         -73.0347   32.8029  -72.5012 O.2       10 UNK        -0.5018 
     22 N         -72.8124   29.1814  -72.7832 N.am      10 UNK        -0.4509 
     23 C         -73.4103   28.1200  -73.3346 C.2       10 UNK         0.4899 
     24 O         -74.6315   27.9995  -73.4585 O.2       10 UNK        -0.4839 
     25 CA        -72.4595   27.0476  -73.9013 C.3       9 UNK         0.0222 
     26 CB        -71.3866   26.5907  -72.8864 C.3       9 UNK        -0.1966 
     27 N         -73.1938   25.9167  -74.4783 N.am      9 UNK        -0.4218 
     28 C         -73.8645   24.9502  -73.8345 C.2       9 UNK         0.5020 
     29 O         -73.8270   24.7729  -72.6160 O.2       9 UNK        -0.5274 
     30 CA        -74.7400   24.0172  -74.6905 C.3       8 UNK         0.0270 
     31 CB        -76.1773   23.9659  -74.1470 C.3       8 UNK        -0.1976 
     32 N         -74.7807   24.4043  -76.1061 N.am      8 UNK        -0.4313 
     33 C         -73.9759   23.9084  -77.0549 C.2       8 UNK         0.5041 
     34 O         -73.0886   23.0832  -76.8365 O.2       8 UNK        -0.5577 
     35 CA        -74.1845   24.4221  -78.4854 C.3       7 UNK         0.0284 
     36 CB        -75.4765   23.8465  -79.0895 C.3       7 UNK        -0.1958 
     37 N         -74.2407   25.8845  -78.5391 N.am      7 UNK        -0.4454 
     38 C         -73.2720   26.6683  -79.0317 C.2       7 UNK         0.5089 
     39 O         -72.1774   26.2450  -79.4047 O.2       7 UNK        -0.5125 
     40 CA        -73.5693   28.1735  -79.1807 C.3       6 UNK         0.0408 
     41 CB        -73.7429   28.5333  -80.6659 C.3       6 UNK        -0.1791 
     42 N         -74.7618   28.6135  -78.4523 N.am      6 UNK        -0.4762 
     43 C         -74.7758   28.9640  -77.1586 C.2       6 UNK         0.5007 
     44 O         -73.7691   28.9666  -76.4512 O.2       6 UNK        -0.5032 
     45 CA        -76.1480   29.3623  -76.5622 C.3       5 UNK         0.0783 
     46 C46       -76.4117   30.8832  -76.7528 C.3       11 UNK        -0.0857 
     47 S47       -75.5900   31.9463  -75.5176 S.3       11 UNK        -0.2512 
     48 C48       -76.9885   32.5070  -74.4878 C.3       11 UNK         0.0225 
     49 N         -77.2806   28.5873  -77.0996 N.am      5 UNK        -0.4615 
     50 C         -77.3950   27.2548  -77.1870 C.2       4 UNK         0.5053 
     51 O         -76.5094   26.4600  -76.8651 O.2       4 UNK        -0.5105 
     52 CA        -78.6972   26.7443  -77.8340 C.3       4 UNK         0.0263 
     53 CB        -78.6631   26.9956  -79.3519 C.3       4 UNK        -0.1981 
     54 N         -78.9575   25.3184  -77.6120 N.am      4 UNK        -0.4224 
     55 C         -79.1476   24.7360  -76.4221 C.2       3 UNK         0.4895 
     56 O         -79.1347   25.3450  -75.3469 O.2       3 UNK        -0.5091 
     57 CA        -79.4054   23.2188  -76.4332 C.3       3 UNK         0.0250 
     58 CB        -78.3227   22.4350  -77.2051 C.3       3 UNK        -0.1996 
     59 N         -79.4552   22.7902  -75.0429 N.am      3 UNK        -0.4254 
     60 C         -79.9600   21.6643  -74.5305 C.2       2 UNK         0.5004 
     61 O         -80.4336   20.7487  -75.2035 O.2       2 UNK        -0.5226 
     62 CA        -79.9326   21.5520  -72.9928 C.3       2 UNK         0.0269 
     63 CB        -78.7495   20.6809  -72.5405 C.3       2 UNK        -0.1926 
     64 N         -79.8340   22.8659  -72.3439 N.am      2 UNK        -0.4687 
     65 C         -80.8464   23.7401  -72.2407 C.2       1 UNK         0.5165 
     66 O         -82.0103   23.4484  -72.5193 O.2       1 UNK        -0.5079 
     67 H67       -76.5030   26.5410  -70.2868 H         1 UNK         0.0900 
     68 H68       -76.6237   26.2162  -72.0109 H         1 UNK         0.0900 
     69 H69       -76.1101   24.9380  -70.9058 H         1 UNK         0.0900 
     70 H70       -78.7027   25.7480  -72.7463 H         1 UNK         0.2959 
     71 H71       -80.8546   25.2825  -70.7782 H         1 UNK         0.1079 
     72 H72       -81.1079   26.0611  -73.7311 H         1 UNK         0.0837 
     73 H73       -82.3646   26.0770  -72.5279 H         1 UNK         0.0837 
     74 H74       -80.1270   28.5967  -74.4102 H         1 UNK         0.0685 
     75 H75       -79.0447   27.4300  -73.6992 H         1 UNK         0.0685 
     76 H76       -78.8191   30.5157  -74.8568 H         1 UNK         0.1434 
     77 H77       -76.0956   32.1021  -71.9514 H         1 UNK         0.1329 
     78 H78       -78.2427   28.4876  -71.1256 H         1 UNK         0.1335 
     79 H79       -77.0541   29.6569  -69.3318 H         1 UNK         0.0680 
     80 H80       -76.2280   31.1646  -69.6122 H         1 UNK         0.0680 
     81 H81       -74.0827   31.4992  -70.5557 H         1 UNK         0.1032 
     82 H82       -72.7419   30.4207  -70.3275 H         1 UNK         0.1032 
     83 H83       -74.4660   30.4380  -72.8553 H         1 UNK         0.0461 
     84 H84       -71.7889   30.6800  -74.4186 H         1 UNK         0.3453 
     85 H85       -71.5004   32.3988  -74.3428 H         1 UNK         0.3453 
     86 H86       -71.8049   29.2009  -72.7230 H         1 UNK         0.2984 
     87 H87       -71.9415   27.5102  -74.7427 H         1 UNK         0.0554 
     88 H88       -70.8133   25.7456  -73.2674 H         1 UNK         0.0847 
     89 H89       -71.8274   26.2938  -71.9341 H         1 UNK         0.0847 
     90 H90       -70.6740   27.3881  -72.6754 H         1 UNK         0.0847 
     91 H91       -73.3405   25.9719  -75.4754 H         1 UNK         0.3141 
     92 H92       -74.3157   23.0156  -74.5963 H         1 UNK         0.0743 
     93 H93       -76.1938   23.6785  -73.0955 H         1 UNK         0.0784 
     94 H94       -76.6733   24.9328  -74.2362 H         1 UNK         0.0784 
     95 H95       -76.7676   23.2262  -74.6820 H         1 UNK         0.0784 
     96 H96       -75.4706   25.1126  -76.3613 H         1 UNK         0.3213 
     97 H97       -73.3506   24.0532  -79.0870 H         1 UNK         0.0855 
     98 H98       -76.3637   24.2294  -78.5864 H         1 UNK         0.0814 
     99 H99       -75.4967   22.7584  -79.0127 H         1 UNK         0.0814 
    100 H100      -75.5613   24.0978  -80.1467 H         1 UNK         0.0814 
    101 H101      -75.0797   26.3194  -78.1694 H         1 UNK         0.3105 
    102 H102      -72.6994   28.7164  -78.8045 H         1 UNK         0.0547 
    103 H103      -74.5931   28.0154  -81.1116 H         1 UNK         0.0837 
    104 H104      -73.8925   29.6047  -80.8004 H         1 UNK         0.0837 
    105 H105      -72.8575   28.2587  -81.2411 H         1 UNK         0.0837 
    106 H106      -75.6296   28.6403  -78.9680 H         1 UNK         0.3020 
    107 H107      -76.1051   29.1396  -75.4929 H         1 UNK         0.1245 
    108 H108      -77.4807   31.0926  -76.7103 H         1 UNK         0.0781 
    109 H109      -76.1071   31.2141  -77.7479 H         1 UNK         0.0781 
    110 H110      -76.6824   33.3997  -73.9401 H         1 UNK         0.0836 
    111 H111      -77.8264   32.8123  -75.1163 H         1 UNK         0.0836 
    112 H112      -78.0577   29.1407  -77.4291 H         1 UNK         0.3022 
    113 H113      -79.5297   27.3012  -77.3990 H         1 UNK         0.0747 
    114 H114      -78.5331   28.0541  -79.5806 H         1 UNK         0.0793 
    115 H115      -79.5933   26.6823  -79.8265 H         1 UNK         0.0793 
    116 H116      -77.8449   26.4560  -79.8313 H         1 UNK         0.0793 
    117 H117      -78.9790   24.7381  -78.4369 H         1 UNK         0.3047 
    118 H118      -80.3826   23.0427  -76.8869 H         1 UNK         0.0822 
    119 H119      -78.3535   22.6610  -78.2710 H         1 UNK         0.0807 
    120 H120      -78.4650   21.3585  -77.1109 H         1 UNK         0.0807 
    121 H121      -77.3191   22.6670  -76.8497 H         1 UNK         0.0807 
    122 H122      -79.1580   23.5174  -74.4049 H         1 UNK         0.2946 
    123 H123      -80.8612   21.0691  -72.6799 H         1 UNK         0.1144 
    124 H124      -78.8057   19.6865  -72.9857 H         1 UNK         0.0793 
    125 H125      -78.7444   20.5498  -71.4583 H         1 UNK         0.0793 
    126 H126      -77.7921   21.1145  -72.8320 H         1 UNK         0.0793 
    127 H127      -78.9157   23.1726  -72.0577 H         1 UNK         0.2896 
@<TRIPOS>BOND
     1    1    2 1    
     2    1   67 1    
     3    1   68 1    
     4    1   69 1    
     5    2    3 2    
     6    2    4 am   BACKBONE|DICT|INTERRES
     7    4    5 1    
     8    4   70 1    
     9    5    6 1    
    10    5   65 1    
    11    5   71 1    
    12    6    7 1    
    13    6   72 1    
    14    6   73 1    
    15    7    8 1    
    16    8    9 1    
    17    8   74 1    
    18    8   75 1    
    19    9   10 ar   
    20    9   14 ar   
    21   10   11 ar   
    22   10   76 1    
    23   11   12 ar   
    24   11   48 1    
    25   12   13 ar   
    26   12   77 1    
    27   13   14 ar   
    28   13   15 1    
    29   14   78 1    
    30   15   16 1    
    31   15   79 1    
    32   15   80 1    
    33   16   17 1    
    34   17   18 1    
    35   17   81 1    
    36   17   82 1    
    37   18   19 1    
    38   18   22 1    
    39   18   83 1    
    40   19   20 am   BACKBONE|DICT|INTERRES
    41   19   21 2    
    42   20   84 1    
    43   20   85 1    
    44   22   23 am   BACKBONE|DICT|INTERRES
    45   22   86 1    
    46   23   24 2    
    47   23   25 1    
    48   25   26 1    
    49   25   27 1    
    50   25   87 1    
    51   26   88 1    
    52   26   89 1    
    53   26   90 1    
    54   27   28 am   BACKBONE|DICT|INTERRES
    55   27   91 1    
    56   28   29 2    
    57   28   30 1    
    58   30   31 1    
    59   30   32 1    
    60   30   92 1    
    61   31   93 1    
    62   31   94 1    
    63   31   95 1    
    64   32   33 am   BACKBONE|DICT|INTERRES
    65   32   96 1    
    66   33   34 2    
    67   33   35 1    
    68   35   36 1    
    69   35   37 1    
    70   35   97 1    
    71   36   98 1    
    72   36   99 1    
    73   36  100 1    
    74   37   38 am   BACKBONE|DICT|INTERRES
    75   37  101 1    
    76   38   39 2    
    77   38   40 1    
    78   40   41 1    
    79   40   42 1    
    80   40  102 1    
    81   41  103 1    
    82   41  104 1    
    83   41  105 1    
    84   42   43 am   BACKBONE|DICT|INTERRES
    85   42  106 1    
    86   43   44 2    
    87   43   45 1    
    88   45   46 1    
    89   45   49 1    
    90   45  107 1    
    91   46   47 1    
    92   46  108 1    
    93   46  109 1    
    94   47   48 1    
    95   48  110 1    
    96   48  111 1    
    97   49   50 am   BACKBONE|DICT|INTERRES
    98   49  112 1    
    99   50   51 2    
   100   50   52 1    
   101   52   53 1    
   102   52   54 1    
   103   52  113 1    
   104   53  114 1    
   105   53  115 1    
   106   53  116 1    
   107   54   55 am   BACKBONE|DICT|INTERRES
   108   54  117 1    
   109   55   56 2    
   110   55   57 1    
   111   57   58 1    
   112   57   59 1    
   113   57  118 1    
   114   58  119 1    
   115   58  120 1    
   116   58  121 1    
   117   59   60 am   BACKBONE|DICT|INTERRES
   118   59  122 1    
   119   60   61 2    
   120   60   62 1    
   121   62   63 1    
   122   62   64 1    
   123   62  123 1    
   124   63  124 1    
   125   63  125 1    
   126   63  126 1    
   127   64   65 am   BACKBONE|DICT|INTERRES
   128   64  127 1    
   129   65   66 2    
@<TRIPOS>SUBSTRUCTURE
     1 UNK         1 GROUP             0       ****    0 ROOT    
