@<TRIPOS>MOLECULE
3R135
127   129    1
SMALL
USER_CHARGES


@<TRIPOS>ATOM
      1 CA        -81.9277   30.1333  -75.9086 C.3       0 UNK        -0.1998 
      2 C         -81.1775   29.2864  -74.8922 C.2       0 UNK         0.4909 
      3 O         -79.9725   29.0935  -75.0326 O.2       0 UNK        -0.5240 
      4 N         -81.8835   28.7808  -73.8721 N.am      1 UNK        -0.4739 
      5 CA        -81.3301   27.9347  -72.8036 C.3       1 UNK         0.0864 
      6 C6        -82.1158   28.1593  -71.4830 C.3       11 UNK        -0.0881 
      7 S7        -81.1972   27.7740  -69.9516 S.3       11 UNK        -0.2682 
      8 C8        -80.1063   29.2252  -69.7413 C.3       11 UNK         0.0289 
      9 C9        -78.8310   29.0806  -70.5597 C.ar      11 UNK        -0.0687 
     10 C10       -77.9227   28.0635  -70.2501 C.ar      11 UNK        -0.0823 
     11 C11       -76.8052   27.8380  -71.0571 C.ar      11 UNK        -0.0830 
     12 C12       -76.5896   28.6546  -72.1696 C.ar      11 UNK        -0.1021 
     13 C13       -77.4663   29.7003  -72.4688 C.ar      11 UNK        -0.0753 
     14 C14       -78.5797   29.9200  -71.6512 C.ar      11 UNK        -0.0933 
     15 C15       -77.2372   30.5412  -73.7154 C.3       11 UNK         0.0166 
     16 S16       -75.6901   31.5013  -73.6104 S.3       11 UNK        -0.2615 
     17 C17       -75.0402   31.3742  -75.3187 C.3       11 UNK        -0.0865 
     18 CA        -73.5161   31.0787  -75.4046 C.3       10 UNK         0.0862 
     19 C         -72.6601   32.3508  -75.1414 C.2       10 UNK         0.5551 
     20 N         -72.5720   33.2460  -76.1162 N.am      10 UNK        -0.7319 
     21 O         -72.0999   32.5486  -74.0641 O.2       10 UNK        -0.5018 
     22 N         -73.1266   29.9386  -74.5619 N.am      10 UNK        -0.4509 
     23 C         -71.9710   29.2694  -74.6649 C.2       10 UNK         0.4899 
     24 O         -71.1538   29.4467  -75.5695 O.2       10 UNK        -0.4839 
     25 CA        -71.6504   28.2424  -73.5687 C.3       9 UNK         0.0222 
     26 CB        -72.4299   28.4622  -72.2563 C.3       9 UNK        -0.1966 
     27 N         -71.9270   26.9009  -74.0754 N.am      9 UNK        -0.4218 
     28 C         -71.0080   25.9604  -74.3258 C.2       9 UNK         0.5020 
     29 O         -69.7982   26.1076  -74.1429 O.2       9 UNK        -0.5274 
     30 CA        -71.5243   24.6128  -74.8593 C.3       8 UNK         0.0270 
     31 CB        -72.0986   23.7603  -73.7155 C.3       8 UNK        -0.1976 
     32 N         -72.5249   24.7583  -75.9196 N.am      8 UNK        -0.4313 
     33 C         -72.2606   25.2118  -77.1538 C.2       8 UNK         0.5041 
     34 O         -71.1347   25.5248  -77.5433 O.2       8 UNK        -0.5577 
     35 CA        -73.4468   25.3286  -78.1261 C.3       7 UNK         0.0284 
     36 CB        -73.7440   23.9719  -78.7850 C.3       7 UNK        -0.1958 
     37 N         -74.6560   25.8388  -77.4787 N.am      7 UNK        -0.4454 
     38 C         -74.8094   27.0985  -77.0473 C.2       7 UNK         0.5089 
     39 O         -73.9885   27.9935  -77.2419 O.2       7 UNK        -0.5125 
     40 CA        -76.0817   27.4121  -76.2406 C.3       6 UNK         0.0408 
     41 CB        -77.2364   27.7984  -77.1752 C.3       6 UNK        -0.1791 
     42 N         -76.5001   26.3164  -75.3631 N.am      6 UNK        -0.4762 
     43 C         -75.7664   25.8413  -74.3455 C.2       6 UNK         0.5007 
     44 O         -74.6689   26.2976  -74.0263 O.2       6 UNK        -0.5032 
     45 CA        -76.3242   24.6176  -73.5973 C.3       5 UNK         0.0783 
     46 C46       -77.3493   25.0248  -72.5085 C.3       11 UNK        -0.0857 
     47 S47       -76.6310   25.0559  -70.8309 S.3       11 UNK        -0.2512 
     48 C48       -75.8446   26.6992  -70.7432 C.3       11 UNK         0.0225 
     49 N         -76.8721   23.6411  -74.5401 N.am      5 UNK        -0.4615 
     50 C         -76.1251   22.8932  -75.3627 C.2       4 UNK         0.5053 
     51 O         -74.8952   22.9333  -75.3950 O.2       4 UNK        -0.5105 
     52 CA        -76.8804   21.9784  -76.3404 C.3       4 UNK         0.0263 
     53 CB        -77.2917   20.6682  -75.6505 C.3       4 UNK        -0.1981 
     54 N         -78.0617   22.6238  -76.9196 N.am      4 UNK        -0.4224 
     55 C         -78.0124   23.6924  -77.7272 C.2       3 UNK         0.4895 
     56 O         -76.9662   24.2267  -78.0914 O.2       3 UNK        -0.5091 
     57 CA        -79.3527   24.2892  -78.1838 C.3       3 UNK         0.0250 
     58 CB        -79.8478   23.5830  -79.4561 C.3       3 UNK        -0.1996 
     59 N         -80.4119   24.2703  -77.1679 N.am      3 UNK        -0.4254 
     60 C         -80.3445   24.8579  -75.9644 C.2       2 UNK         0.5004 
     61 O         -79.3191   25.3740  -75.5123 O.2       2 UNK        -0.5226 
     62 CA        -81.6501   24.8531  -75.1482 C.3       2 UNK         0.0269 
     63 CB        -81.7831   23.5726  -74.2984 C.3       2 UNK        -0.1926 
     64 N         -81.8065   26.0869  -74.3631 N.am      2 UNK        -0.4687 
     65 C         -81.2042   26.4481  -73.2177 C.2       1 UNK         0.5165 
     66 O         -80.5570   25.6790  -72.5088 O.2       1 UNK        -0.5079 
     67 H67       -81.8441   29.6896  -76.9003 H         1 UNK         0.0900 
     68 H68       -82.9860   30.2241  -75.6647 H         1 UNK         0.0900 
     69 H69       -81.5014   31.1353  -75.9472 H         1 UNK         0.0900 
     70 H70       -82.8726   28.9786  -73.8082 H         1 UNK         0.2959 
     71 H71       -80.3023   28.2512  -72.6453 H         1 UNK         0.1079 
     72 H72       -83.0409   27.5800  -71.4869 H         1 UNK         0.0837 
     73 H73       -82.4281   29.2022  -71.4063 H         1 UNK         0.0837 
     74 H74       -80.6448   30.1379  -70.0010 H         1 UNK         0.0685 
     75 H75       -79.8402   29.3146  -68.6871 H         1 UNK         0.0685 
     76 H76       -78.1130   27.4134  -69.4068 H         1 UNK         0.1434 
     77 H77       -75.7453   28.4741  -72.8185 H         1 UNK         0.1329 
     78 H78       -79.2798   30.7065  -71.8978 H         1 UNK         0.1335 
     79 H79       -77.2297   29.8710  -74.5743 H         1 UNK         0.0680 
     80 H80       -78.0674   31.2296  -73.8802 H         1 UNK         0.0680 
     81 H81       -75.5695   30.5882  -75.8561 H         1 UNK         0.1032 
     82 H82       -75.2912   32.2925  -75.8530 H         1 UNK         0.1032 
     83 H83       -73.3107   30.7813  -76.4354 H         1 UNK         0.0461 
     84 H84       -73.0244   33.0982  -77.0050 H         1 UNK         0.3453 
     85 H85       -72.0309   34.0829  -75.9641 H         1 UNK         0.3453 
     86 H86       -73.7222   29.7685  -73.7662 H         1 UNK         0.2984 
     87 H87       -70.5892   28.3546  -73.3381 H         1 UNK         0.0554 
     88 H88       -72.0877   27.7756  -71.4819 H         1 UNK         0.0847 
     89 H89       -73.4992   28.3033  -72.3815 H         1 UNK         0.0847 
     90 H90       -72.2836   29.4737  -71.8746 H         1 UNK         0.0847 
     91 H91       -72.9084   26.6792  -74.2406 H         1 UNK         0.3141 
     92 H92       -70.6713   24.0758  -75.2799 H         1 UNK         0.0743 
     93 H93       -72.9696   24.2293  -73.2575 H         1 UNK         0.0784 
     94 H94       -72.3970   22.7728  -74.0682 H         1 UNK         0.0784 
     95 H95       -71.3570   23.6129  -72.9292 H         1 UNK         0.0784 
     96 H96       -73.4693   24.4590  -75.7020 H         1 UNK         0.3213 
     97 H97       -73.1629   26.0318  -78.9122 H         1 UNK         0.0855 
     98 H98       -74.0668   23.2290  -78.0549 H         1 UNK         0.0814 
     99 H99       -72.8578   23.5774  -79.2839 H         1 UNK         0.0814 
    100 H100      -74.5272   24.0611  -79.5381 H         1 UNK         0.0814 
    101 H101      -75.4319   25.1904  -77.3743 H         1 UNK         0.3105 
    102 H102      -75.8572   28.2648  -75.5992 H         1 UNK         0.0547 
    103 H103      -76.9773   28.6724  -77.7739 H         1 UNK         0.0837 
    104 H104      -77.4827   26.9913  -77.8648 H         1 UNK         0.0837 
    105 H105      -78.1369   28.0440  -76.6132 H         1 UNK         0.0837 
    106 H106      -77.4177   25.9109  -75.5330 H         1 UNK         0.3020 
    107 H107      -75.4741   24.1329  -73.1113 H         1 UNK         0.1245 
    108 H108      -78.1592   24.2948  -72.4656 H         1 UNK         0.0781 
    109 H109      -77.8468   25.9708  -72.7320 H         1 UNK         0.0781 
    110 H110      -74.9863   26.7129  -71.4144 H         1 UNK         0.0836 
    111 H111      -75.4429   26.8424  -69.7393 H         1 UNK         0.0836 
    112 H112      -77.8780   23.6137  -74.6279 H         1 UNK         0.3022 
    113 H113      -76.1976   21.7343  -77.1573 H         1 UNK         0.0747 
    114 H114      -77.7523   19.9762  -76.3559 H         1 UNK         0.0793 
    115 H115      -76.4230   20.1635  -75.2250 H         1 UNK         0.0793 
    116 H116      -77.9987   20.8408  -74.8380 H         1 UNK         0.0793 
    117 H117      -78.9652   22.2478  -76.6715 H         1 UNK         0.3047 
    118 H118      -79.1683   25.3362  -78.4317 H         1 UNK         0.0822 
    119 H119      -80.7326   24.0722  -79.8640 H         1 UNK         0.0807 
    120 H120      -80.0969   22.5377  -79.2689 H         1 UNK         0.0807 
    121 H121      -79.0838   23.6013  -80.2349 H         1 UNK         0.0807 
    122 H122      -81.2856   23.8486  -77.4495 H         1 UNK         0.2946 
    123 H123      -82.4807   24.8631  -75.8564 H         1 UNK         0.1144 
    124 H124      -82.6690   23.6052  -73.6643 H         1 UNK         0.0793 
    125 H125      -80.9155   23.4126  -73.6576 H         1 UNK         0.0793 
    126 H126      -81.8732   22.6922  -74.9357 H         1 UNK         0.0793 
    127 H127      -82.2962   26.8277  -74.8446 H         1 UNK         0.2896 
@<TRIPOS>BOND
     1    1    2 1    
     2    1   67 1    
     3    1   68 1    
     4    1   69 1    
     5    2    3 2    
     6    2    4 am   BACKBONE|DICT|INTERRES
     7    4    5 1    
     8    4   70 1    
     9    5    6 1    
    10    5   65 1    
    11    5   71 1    
    12    6    7 1    
    13    6   72 1    
    14    6   73 1    
    15    7    8 1    
    16    8    9 1    
    17    8   74 1    
    18    8   75 1    
    19    9   10 ar   
    20    9   14 ar   
    21   10   11 ar   
    22   10   76 1    
    23   11   12 ar   
    24   11   48 1    
    25   12   13 ar   
    26   12   77 1    
    27   13   14 ar   
    28   13   15 1    
    29   14   78 1    
    30   15   16 1    
    31   15   79 1    
    32   15   80 1    
    33   16   17 1    
    34   17   18 1    
    35   17   81 1    
    36   17   82 1    
    37   18   19 1    
    38   18   22 1    
    39   18   83 1    
    40   19   20 am   BACKBONE|DICT|INTERRES
    41   19   21 2    
    42   20   84 1    
    43   20   85 1    
    44   22   23 am   BACKBONE|DICT|INTERRES
    45   22   86 1    
    46   23   24 2    
    47   23   25 1    
    48   25   26 1    
    49   25   27 1    
    50   25   87 1    
    51   26   88 1    
    52   26   89 1    
    53   26   90 1    
    54   27   28 am   BACKBONE|DICT|INTERRES
    55   27   91 1    
    56   28   29 2    
    57   28   30 1    
    58   30   31 1    
    59   30   32 1    
    60   30   92 1    
    61   31   93 1    
    62   31   94 1    
    63   31   95 1    
    64   32   33 am   BACKBONE|DICT|INTERRES
    65   32   96 1    
    66   33   34 2    
    67   33   35 1    
    68   35   36 1    
    69   35   37 1    
    70   35   97 1    
    71   36   98 1    
    72   36   99 1    
    73   36  100 1    
    74   37   38 am   BACKBONE|DICT|INTERRES
    75   37  101 1    
    76   38   39 2    
    77   38   40 1    
    78   40   41 1    
    79   40   42 1    
    80   40  102 1    
    81   41  103 1    
    82   41  104 1    
    83   41  105 1    
    84   42   43 am   BACKBONE|DICT|INTERRES
    85   42  106 1    
    86   43   44 2    
    87   43   45 1    
    88   45   46 1    
    89   45   49 1    
    90   45  107 1    
    91   46   47 1    
    92   46  108 1    
    93   46  109 1    
    94   47   48 1    
    95   48  110 1    
    96   48  111 1    
    97   49   50 am   BACKBONE|DICT|INTERRES
    98   49  112 1    
    99   50   51 2    
   100   50   52 1    
   101   52   53 1    
   102   52   54 1    
   103   52  113 1    
   104   53  114 1    
   105   53  115 1    
   106   53  116 1    
   107   54   55 am   BACKBONE|DICT|INTERRES
   108   54  117 1    
   109   55   56 2    
   110   55   57 1    
   111   57   58 1    
   112   57   59 1    
   113   57  118 1    
   114   58  119 1    
   115   58  120 1    
   116   58  121 1    
   117   59   60 am   BACKBONE|DICT|INTERRES
   118   59  122 1    
   119   60   61 2    
   120   60   62 1    
   121   62   63 1    
   122   62   64 1    
   123   62  123 1    
   124   63  124 1    
   125   63  125 1    
   126   63  126 1    
   127   64   65 am   BACKBONE|DICT|INTERRES
   128   64  127 1    
   129   65   66 2    
@<TRIPOS>SUBSTRUCTURE
     1 UNK         1 GROUP             0       ****    0 ROOT    
