@<TRIPOS>MOLECULE
3R135
127   129    1
SMALL
USER_CHARGES


@<TRIPOS>ATOM
      1 CA        -79.9162   24.2409  -70.1640 C.3       0 UNK        -0.1998 
      2 C         -81.0948   24.8976  -70.8645 C.2       0 UNK         0.4909 
      3 O         -82.1553   24.2827  -70.9809 O.2       0 UNK        -0.5240 
      4 N         -80.9227   26.1475  -71.3173 N.am      1 UNK        -0.4739 
      5 CA        -81.9707   26.9494  -71.9683 C.3       1 UNK         0.0864 
      6 C6        -81.6040   28.4516  -72.0467 C.3       11 UNK        -0.0881 
      7 S7        -81.2356   29.1507  -70.3985 S.3       11 UNK        -0.2682 
      8 C8        -80.1070   30.5288  -70.7943 C.3       11 UNK         0.0289 
      9 C9        -78.8662   30.0903  -71.5634 C.ar      11 UNK        -0.0687 
     10 C10       -78.0469   29.0661  -71.0755 C.ar      11 UNK        -0.0823 
     11 C11       -76.9321   28.6419  -71.8042 C.ar      11 UNK        -0.0830 
     12 C12       -76.6249   29.2662  -73.0158 C.ar      11 UNK        -0.1021 
     13 C13       -77.4118   30.3169  -73.4942 C.ar      11 UNK        -0.0753 
     14 C14       -78.5373   30.7171  -72.7699 C.ar      11 UNK        -0.0933 
     15 C15       -77.0460   31.0157  -74.7955 C.3       11 UNK         0.0166 
     16 S16       -76.0707   32.5351  -74.5312 S.3       11 UNK        -0.2615 
     17 C17       -74.5724   31.9228  -73.6823 C.3       11 UNK        -0.0865 
     18 CA        -73.5635   31.2267  -74.6386 C.3       10 UNK         0.0862 
     19 C         -72.5888   32.2563  -75.2783 C.2       10 UNK         0.5551 
     20 N         -72.9380   32.8120  -76.4302 N.am      10 UNK        -0.7319 
     21 O         -71.5456   32.5847  -74.7157 O.2       10 UNK        -0.5018 
     22 N         -72.8789   30.1175  -73.9544 N.am      10 UNK        -0.4509 
     23 C         -72.0443   29.2428  -74.5327 C.2       10 UNK         0.4899 
     24 O         -71.7617   29.2543  -75.7300 O.2       10 UNK        -0.4839 
     25 CA        -71.3998   28.1745  -73.6360 C.3       9 UNK         0.0222 
     26 CB        -71.7741   28.2706  -72.1414 C.3       9 UNK        -0.1966 
     27 N         -71.7634   26.8541  -74.1450 N.am      9 UNK        -0.4218 
     28 C         -70.9387   25.8060  -74.2475 C.2       9 UNK         0.5020 
     29 O         -69.7481   25.8330  -73.9302 O.2       9 UNK        -0.5274 
     30 CA        -71.5423   24.4911  -74.7720 C.3       8 UNK         0.0270 
     31 CB        -72.2670   23.7449  -73.6394 C.3       8 UNK        -0.1976 
     32 N         -72.4565   24.6710  -75.9032 N.am      8 UNK        -0.4313 
     33 C         -72.0792   25.0318  -77.1389 C.2       8 UNK         0.5041 
     34 O         -70.9113   25.2511  -77.4627 O.2       8 UNK        -0.5577 
     35 CA        -73.1874   25.1568  -78.1988 C.3       7 UNK         0.0284 
     36 CB        -73.5734   23.7764  -78.7550 C.3       7 UNK        -0.1958 
     37 N         -74.3748   25.8261  -77.6686 N.am      7 UNK        -0.4454 
     38 C         -74.4670   27.1457  -77.4598 C.2       7 UNK         0.5089 
     39 O         -73.6225   27.9542  -77.8404 O.2       7 UNK        -0.5125 
     40 CA        -75.6987   27.6590  -76.6905 C.3       6 UNK         0.0408 
     41 CB        -76.7818   28.1600  -77.6569 C.3       6 UNK        -0.1791 
     42 N         -76.2783   26.6732  -75.7733 N.am      6 UNK        -0.4762 
     43 C         -75.6626   26.2018  -74.6790 C.2       6 UNK         0.5007 
     44 O         -74.5472   26.5693  -74.3127 O.2       6 UNK        -0.5032 
     45 CA        -76.3978   25.0974  -73.8986 C.3       5 UNK         0.0783 
     46 C46       -77.4785   25.6867  -72.9541 C.3       11 UNK        -0.0857 
     47 S47       -76.8914   25.9056  -71.2417 S.3       11 UNK        -0.2512 
     48 C48       -76.0477   27.5200  -71.2807 C.3       11 UNK         0.0225 
     49 N         -76.9592   24.1102  -74.8226 N.am      5 UNK        -0.4615 
     50 C         -76.2340   23.2476  -75.5466 C.2       4 UNK         0.5053 
     51 O         -75.0086   23.1614  -75.4748 O.2       4 UNK        -0.5105 
     52 CA        -76.9996   22.3711  -76.5541 C.3       4 UNK         0.0263 
     53 CB        -77.5124   21.0924  -75.8739 C.3       4 UNK        -0.1981 
     54 N         -78.1213   23.0765  -77.1822 N.am      4 UNK        -0.4224 
     55 C         -77.9867   24.1375  -77.9912 C.2       3 UNK         0.4895 
     56 O         -76.8989   24.5789  -78.3560 O.2       3 UNK        -0.5091 
     57 CA        -79.2713   24.8623  -78.4314 C.3       3 UNK         0.0250 
     58 CB        -79.7695   24.2992  -79.7717 C.3       3 UNK        -0.1996 
     59 N         -80.3625   24.8264  -77.4498 N.am      3 UNK        -0.4254 
     60 C         -80.2914   25.2696  -76.1864 C.2       2 UNK         0.5004 
     61 O         -79.2650   25.7261  -75.6733 O.2       2 UNK        -0.5226 
     62 CA        -81.5702   25.1328  -75.3516 C.3       2 UNK         0.0269 
     63 CB        -81.9197   23.6521  -75.1065 C.3       2 UNK        -0.1926 
     64 N         -81.3920   25.7960  -74.0625 N.am      2 UNK        -0.4687 
     65 C         -82.3555   26.4047  -73.3606 C.2       1 UNK         0.5165 
     66 O         -83.5154   26.5262  -73.7584 O.2       1 UNK        -0.5079 
     67 H67       -79.2691   24.9821  -69.6961 H         1 UNK         0.0900 
     68 H68       -79.3267   23.6628  -70.8748 H         1 UNK         0.0900 
     69 H69       -80.2661   23.5665  -69.3829 H         1 UNK         0.0900 
     70 H70       -80.0395   26.6160  -71.1726 H         1 UNK         0.2959 
     71 H71       -82.8677   26.8641  -71.3502 H         1 UNK         0.1079 
     72 H72       -80.7509   28.5927  -72.7121 H         1 UNK         0.0837 
     73 H73       -82.4260   29.0260  -72.4784 H         1 UNK         0.0837 
     74 H74       -80.6648   31.2813  -71.3541 H         1 UNK         0.0685 
     75 H75       -79.7943   31.0057  -69.8646 H         1 UNK         0.0685 
     76 H76       -78.2882   28.5856  -70.1371 H         1 UNK         0.1434 
     77 H77       -75.7577   28.9514  -73.5796 H         1 UNK         0.1329 
     78 H78       -79.1536   31.5221  -73.1466 H         1 UNK         0.1335 
     79 H79       -76.4938   30.3432  -75.4491 H         1 UNK         0.0680 
     80 H80       -77.9564   31.2755  -75.3377 H         1 UNK         0.0680 
     81 H81       -74.8848   31.2562  -72.8802 H         1 UNK         0.1032 
     82 H82       -74.1054   32.7618  -73.1620 H         1 UNK         0.1032 
     83 H83       -74.1202   30.7549  -75.4505 H         1 UNK         0.0461 
     84 H84       -73.8075   32.5699  -76.8791 H         1 UNK         0.3453 
     85 H85       -72.3275   33.4936  -76.8528 H         1 UNK         0.3453 
     86 H86       -73.0122   30.0579  -72.9567 H         1 UNK         0.2984 
     87 H87       -70.3214   28.3205  -73.7249 H         1 UNK         0.0554 
     88 H88       -71.2499   27.5111  -71.5609 H         1 UNK         0.0847 
     89 H89       -72.8419   28.1254  -71.9775 H         1 UNK         0.0847 
     90 H90       -71.4928   29.2369  -71.7206 H         1 UNK         0.0847 
     91 H91       -72.7411   26.7380  -74.4110 H         1 UNK         0.3141 
     92 H92       -70.7158   23.8630  -75.1112 H         1 UNK         0.0743 
     93 H93       -73.1238   24.3080  -73.2681 H         1 UNK         0.0784 
     94 H94       -72.6257   22.7706  -73.9722 H         1 UNK         0.0784 
     95 H95       -71.5986   23.5728  -72.7947 H         1 UNK         0.0784 
     96 H96       -73.4317   24.4427  -75.7393 H         1 UNK         0.3213 
     97 H97       -72.7943   25.7531  -79.0254 H         1 UNK         0.0855 
     98 H98       -73.9707   23.1208  -77.9801 H         1 UNK         0.0814 
     99 H99       -72.7073   23.2773  -79.1913 H         1 UNK         0.0814 
    100 H100      -74.3275   23.8621  -79.5377 H         1 UNK         0.0814 
    101 H101      -75.1803   25.2483  -77.4554 H         1 UNK         0.3105 
    102 H102      -75.3588   28.5022  -76.0880 H         1 UNK         0.0547 
    103 H103      -76.3993   28.9676  -78.2823 H         1 UNK         0.0837 
    104 H104      -77.1216   27.3679  -78.3238 H         1 UNK         0.0837 
    105 H105      -77.6488   28.5465  -77.1209 H         1 UNK         0.0837 
    106 H106      -77.2081   26.3283  -75.9868 H         1 UNK         0.3020 
    107 H107      -75.6500   24.5748  -73.2974 H         1 UNK         0.1245 
    108 H108      -78.3200   24.9963  -72.8834 H         1 UNK         0.0781 
    109 H109      -77.9127   26.6126  -73.3362 H         1 UNK         0.0781 
    110 H110      -75.1396   27.4292  -71.8761 H         1 UNK         0.0836 
    111 H111      -75.7196   27.7679  -70.2704 H         1 UNK         0.0836 
    112 H112      -77.9487   24.1973  -75.0145 H         1 UNK         0.3022 
    113 H113      -76.2992   22.0836  -77.3413 H         1 UNK         0.0747 
    114 H114      -77.9877   20.4241  -76.5922 H         1 UNK         0.0793 
    115 H115      -76.6912   20.5399  -75.4147 H         1 UNK         0.0793 
    116 H116      -78.2365   21.3124  -75.0883 H         1 UNK         0.0793 
    117 H117      -79.0525   22.7689  -76.9431 H         1 UNK         0.3047 
    118 H118      -79.0120   25.9118  -78.5812 H         1 UNK         0.0822 
    119 H119      -80.6114   24.8748  -80.1569 H         1 UNK         0.0807 
    120 H120      -80.0853   23.2590  -79.6815 H         1 UNK         0.0807 
    121 H121      -78.9830   24.3365  -80.5271 H         1 UNK         0.0807 
    122 H122      -81.2433   24.4582  -77.7802 H         1 UNK         0.2946 
    123 H123      -82.3789   25.6160  -75.9050 H         1 UNK         0.1144 
    124 H124      -81.1179   23.1310  -74.5817 H         1 UNK         0.0793 
    125 H125      -82.1010   23.1211  -76.0416 H         1 UNK         0.0793 
    126 H126      -82.8245   23.5551  -74.5057 H         1 UNK         0.0793 
    127 H127      -80.4438   25.8060  -73.7128 H         1 UNK         0.2896 
@<TRIPOS>BOND
     1    1    2 1    
     2    1   67 1    
     3    1   68 1    
     4    1   69 1    
     5    2    3 2    
     6    2    4 am   BACKBONE|DICT|INTERRES
     7    4    5 1    
     8    4   70 1    
     9    5    6 1    
    10    5   65 1    
    11    5   71 1    
    12    6    7 1    
    13    6   72 1    
    14    6   73 1    
    15    7    8 1    
    16    8    9 1    
    17    8   74 1    
    18    8   75 1    
    19    9   10 ar   
    20    9   14 ar   
    21   10   11 ar   
    22   10   76 1    
    23   11   12 ar   
    24   11   48 1    
    25   12   13 ar   
    26   12   77 1    
    27   13   14 ar   
    28   13   15 1    
    29   14   78 1    
    30   15   16 1    
    31   15   79 1    
    32   15   80 1    
    33   16   17 1    
    34   17   18 1    
    35   17   81 1    
    36   17   82 1    
    37   18   19 1    
    38   18   22 1    
    39   18   83 1    
    40   19   20 am   BACKBONE|DICT|INTERRES
    41   19   21 2    
    42   20   84 1    
    43   20   85 1    
    44   22   23 am   BACKBONE|DICT|INTERRES
    45   22   86 1    
    46   23   24 2    
    47   23   25 1    
    48   25   26 1    
    49   25   27 1    
    50   25   87 1    
    51   26   88 1    
    52   26   89 1    
    53   26   90 1    
    54   27   28 am   BACKBONE|DICT|INTERRES
    55   27   91 1    
    56   28   29 2    
    57   28   30 1    
    58   30   31 1    
    59   30   32 1    
    60   30   92 1    
    61   31   93 1    
    62   31   94 1    
    63   31   95 1    
    64   32   33 am   BACKBONE|DICT|INTERRES
    65   32   96 1    
    66   33   34 2    
    67   33   35 1    
    68   35   36 1    
    69   35   37 1    
    70   35   97 1    
    71   36   98 1    
    72   36   99 1    
    73   36  100 1    
    74   37   38 am   BACKBONE|DICT|INTERRES
    75   37  101 1    
    76   38   39 2    
    77   38   40 1    
    78   40   41 1    
    79   40   42 1    
    80   40  102 1    
    81   41  103 1    
    82   41  104 1    
    83   41  105 1    
    84   42   43 am   BACKBONE|DICT|INTERRES
    85   42  106 1    
    86   43   44 2    
    87   43   45 1    
    88   45   46 1    
    89   45   49 1    
    90   45  107 1    
    91   46   47 1    
    92   46  108 1    
    93   46  109 1    
    94   47   48 1    
    95   48  110 1    
    96   48  111 1    
    97   49   50 am   BACKBONE|DICT|INTERRES
    98   49  112 1    
    99   50   51 2    
   100   50   52 1    
   101   52   53 1    
   102   52   54 1    
   103   52  113 1    
   104   53  114 1    
   105   53  115 1    
   106   53  116 1    
   107   54   55 am   BACKBONE|DICT|INTERRES
   108   54  117 1    
   109   55   56 2    
   110   55   57 1    
   111   57   58 1    
   112   57   59 1    
   113   57  118 1    
   114   58  119 1    
   115   58  120 1    
   116   58  121 1    
   117   59   60 am   BACKBONE|DICT|INTERRES
   118   59  122 1    
   119   60   61 2    
   120   60   62 1    
   121   62   63 1    
   122   62   64 1    
   123   62  123 1    
   124   63  124 1    
   125   63  125 1    
   126   63  126 1    
   127   64   65 am   BACKBONE|DICT|INTERRES
   128   64  127 1    
   129   65   66 2    
@<TRIPOS>SUBSTRUCTURE
     1 UNK         1 GROUP             0       ****    0 ROOT    
