@<TRIPOS>MOLECULE
3R135
127   129    1
SMALL
USER_CHARGES


@<TRIPOS>ATOM
      1 CA        -77.9368   27.0767  -71.9496 C.3       0 UNK        -0.1998 
      2 C         -79.2960   27.4070  -71.3610 C.2       0 UNK         0.4909 
      3 O         -79.5323   27.1446  -70.1818 O.2       0 UNK        -0.5240 
      4 N         -80.1970   27.9720  -72.1732 N.am      1 UNK        -0.4739 
      5 CA        -81.5618   28.3482  -71.7826 C.3       1 UNK         0.0864 
      6 C6        -82.0221   29.6387  -72.5074 C.3       11 UNK        -0.0881 
      7 S7        -82.1510   29.4871  -74.3242 S.3       11 UNK        -0.2682 
      8 C8        -80.8697   30.6420  -74.9157 C.3       11 UNK         0.0289 
      9 C9        -79.5213   29.9704  -75.1462 C.ar      11 UNK        -0.0687 
     10 C10       -79.4243   28.8861  -76.0249 C.ar      11 UNK        -0.0823 
     11 C11       -78.1829   28.3180  -76.3186 C.ar      11 UNK        -0.0830 
     12 C12       -77.0296   28.8645  -75.7557 C.ar      11 UNK        -0.1021 
     13 C13       -77.1092   29.9207  -74.8451 C.ar      11 UNK        -0.0753 
     14 C14       -78.3611   30.4696  -74.5412 C.ar      11 UNK        -0.0933 
     15 C15       -75.8392   30.4838  -74.2182 C.3       11 UNK         0.0166 
     16 S16       -75.4142   29.6525  -72.6519 S.3       11 UNK        -0.2615 
     17 C17       -74.6907   28.0763  -73.2347 C.3       11 UNK        -0.0865 
     18 CA        -73.1551   27.9632  -73.0401 C.3       10 UNK         0.0862 
     19 C         -72.6014   26.6006  -73.5541 C.2       10 UNK         0.5551 
     20 N         -71.3754   26.5287  -74.0605 N.am      10 UNK        -0.7319 
     21 O         -73.2973   25.5886  -73.5053 O.2       10 UNK        -0.5018 
     22 N         -72.4395   29.1073  -73.6243 N.am      10 UNK        -0.4509 
     23 C         -71.6011   29.9116  -72.9603 C.2       10 UNK         0.4899 
     24 O         -71.3746   29.8193  -71.7523 O.2       10 UNK        -0.4839 
     25 CA        -70.8895   31.0024  -73.7883 C.3       9 UNK         0.0222 
     26 CB        -69.6441   31.5697  -73.0744 C.3       9 UNK        -0.1966 
     27 N         -70.5417   30.5891  -75.1544 N.am      9 UNK        -0.4218 
     28 C         -69.8057   29.5354  -75.5350 C.2       9 UNK         0.5020 
     29 O         -69.3661   28.6859  -74.7571 O.2       9 UNK        -0.5274 
     30 CA        -69.5512   29.4020  -77.0505 C.3       8 UNK         0.0270 
     31 CB        -68.5647   28.2672  -77.3853 C.3       8 UNK        -0.1976 
     32 N         -70.7914   29.1809  -77.7965 N.am      8 UNK        -0.4313 
     33 C         -71.7493   30.0887  -78.0290 C.2       8 UNK         0.5041 
     34 O         -71.6654   31.2674  -77.6787 O.2       8 UNK        -0.5577 
     35 CA        -73.0214   29.6053  -78.7511 C.3       7 UNK         0.0284 
     36 CB        -73.0095   30.0594  -80.2198 C.3       7 UNK        -0.1958 
     37 N         -73.2264   28.1523  -78.6964 N.am      7 UNK        -0.4454 
     38 C         -73.4961   27.4634  -77.5807 C.2       7 UNK         0.5089 
     39 O         -73.5808   27.9734  -76.4613 O.2       7 UNK        -0.5125 
     40 CA        -73.6596   25.9489  -77.7425 C.3       6 UNK         0.0408 
     41 CB        -72.2922   25.2456  -77.7139 C.3       6 UNK        -0.1791 
     42 N         -74.4909   25.4439  -76.6543 N.am      6 UNK        -0.4762 
     43 C         -75.4001   24.4703  -76.7659 C.2       6 UNK         0.5007 
     44 O         -75.5929   23.8260  -77.8019 O.2       6 UNK        -0.5032 
     45 CA        -76.2490   24.1803  -75.5169 C.3       5 UNK         0.0783 
     46 C46       -77.2313   25.3367  -75.1804 C.3       11 UNK        -0.0857 
     47 S47       -78.5798   25.5801  -76.3967 S.3       11 UNK        -0.2512 
     48 C48       -78.0853   27.1153  -77.2442 C.3       11 UNK         0.0225 
     49 N         -76.9359   22.9037  -75.6965 N.am      5 UNK        -0.4615 
     50 C         -77.4537   22.1709  -74.7101 C.2       4 UNK         0.5053 
     51 O         -77.3174   22.4364  -73.5136 O.2       4 UNK        -0.5105 
     52 CA        -78.2310   20.9125  -75.1264 C.3       4 UNK         0.0263 
     53 CB        -77.3362   19.6657  -75.0338 C.3       4 UNK        -0.1981 
     54 N         -79.4029   20.7317  -74.2690 N.am      4 UNK        -0.4224 
     55 C         -80.5330   21.4455  -74.3656 C.2       3 UNK         0.4895 
     56 O         -80.7607   22.2386  -75.2822 O.2       3 UNK        -0.5091 
     57 CA        -81.6122   21.2116  -73.2855 C.3       3 UNK         0.0250 
     58 CB        -81.0864   20.5156  -72.0076 C.3       3 UNK        -0.1996 
     59 N         -82.3396   22.4406  -72.9369 N.am      3 UNK        -0.4254 
     60 C         -81.8212   23.5691  -72.4296 C.2       2 UNK         0.5004 
     61 O         -80.6246   23.7378  -72.1762 O.2       2 UNK        -0.5226 
     62 CA        -82.8209   24.6894  -72.1100 C.3       2 UNK         0.0269 
     63 CB        -83.5817   24.3751  -70.8047 C.3       2 UNK        -0.1926 
     64 N         -82.0761   25.9394  -71.9827 N.am      2 UNK        -0.4687 
     65 C         -82.5735   27.1788  -71.8952 C.2       1 UNK         0.5165 
     66 O         -83.7828   27.4173  -71.8964 O.2       1 UNK        -0.5079 
     67 H67       -77.7920   25.9971  -71.9757 H         1 UNK         0.0900 
     68 H68       -77.1549   27.5103  -71.3276 H         1 UNK         0.0900 
     69 H69       -77.8264   27.4686  -72.9610 H         1 UNK         0.0900 
     70 H70       -79.9609   28.1580  -73.1390 H         1 UNK         0.2959 
     71 H71       -81.5487   28.5934  -70.7181 H         1 UNK         0.1079 
     72 H72       -82.9938   29.9593  -72.1272 H         1 UNK         0.0837 
     73 H73       -81.3388   30.4509  -72.2559 H         1 UNK         0.0837 
     74 H74       -80.7814   31.4891  -74.2340 H         1 UNK         0.0685 
     75 H75       -81.2041   31.0597  -75.8662 H         1 UNK         0.0685 
     76 H76       -80.3175   28.4861  -76.4856 H         1 UNK         0.1434 
     77 H77       -76.0682   28.4555  -76.0252 H         1 UNK         0.1329 
     78 H78       -78.4258   31.3044  -73.8568 H         1 UNK         0.1335 
     79 H79       -75.9685   31.5492  -74.0227 H         1 UNK         0.0680 
     80 H80       -75.0016   30.4036  -74.9135 H         1 UNK         0.0680 
     81 H81       -75.1858   27.2691  -72.6943 H         1 UNK         0.1032 
     82 H82       -74.9383   27.9194  -74.2791 H         1 UNK         0.1032 
     83 H83       -72.9829   27.9389  -71.9631 H         1 UNK         0.0461 
     84 H84       -71.0294   25.6381  -74.3768 H         1 UNK         0.3453 
     85 H85       -70.7832   27.3492  -74.1221 H         1 UNK         0.3453 
     86 H86       -72.5449   29.2142  -74.6243 H         1 UNK         0.2984 
     87 H87       -71.6091   31.8155  -73.8929 H         1 UNK         0.0554 
     88 H88       -69.9058   31.9994  -72.1066 H         1 UNK         0.0847 
     89 H89       -69.1758   32.3607  -73.6601 H         1 UNK         0.0847 
     90 H90       -68.8958   30.7965  -72.8962 H         1 UNK         0.0847 
     91 H91       -70.9239   31.1603  -75.9061 H         1 UNK         0.3141 
     92 H92       -69.1065   30.3406  -77.3884 H         1 UNK         0.0743 
     93 H93       -67.6158   28.4096  -76.8662 H         1 UNK         0.0784 
     94 H94       -68.9541   27.2916  -77.0905 H         1 UNK         0.0784 
     95 H95       -68.3452   28.2332  -78.4526 H         1 UNK         0.0784 
     96 H96       -70.9640   28.2361  -78.1048 H         1 UNK         0.3213 
     97 H97       -73.8700   30.0799  -78.2530 H         1 UNK         0.0855 
     98 H98       -72.1911   29.6030  -80.7780 H         1 UNK         0.0814 
     99 H99       -72.8891   31.1414  -80.2927 H         1 UNK         0.0814 
    100 H100      -73.9434   29.8063  -80.7221 H         1 UNK         0.0814 
    101 H101      -73.1709   27.6547  -79.5742 H         1 UNK         0.3105 
    102 H102      -74.1464   25.7604  -78.7019 H         1 UNK         0.0547 
    103 H103      -71.7615   25.4355  -76.7804 H         1 UNK         0.0837 
    104 H104      -72.4009   24.1663  -77.8218 H         1 UNK         0.0837 
    105 H105      -71.6540   25.5875  -78.5294 H         1 UNK         0.0837 
    106 H106      -74.3862   25.9480  -75.7826 H         1 UNK         0.3020 
    107 H107      -75.5481   24.0673  -74.6854 H         1 UNK         0.1245 
    108 H108      -76.6861   26.2660  -75.0256 H         1 UNK         0.0781 
    109 H109      -77.7087   25.1275  -74.2229 H         1 UNK         0.0781 
    110 H110      -78.7352   27.2677  -78.1071 H         1 UNK         0.0836 
    111 H111      -77.0745   27.0055  -77.6402 H         1 UNK         0.0836 
    112 H112      -77.0236   22.6156  -76.6630 H         1 UNK         0.3022 
    113 H113      -78.5666   21.0239  -76.1601 H         1 UNK         0.0747 
    114 H114      -76.4653   19.7621  -75.6836 H         1 UNK         0.0793 
    115 H115      -77.8724   18.7682  -75.3430 H         1 UNK         0.0793 
    116 H116      -76.9691   19.5057  -74.0190 H         1 UNK         0.0793 
    117 H117      -79.2830   20.1336  -73.4649 H         1 UNK         0.3047 
    118 H118      -82.3474   20.5466  -73.7413 H         1 UNK         0.0822 
    119 H119      -80.7239   19.5091  -72.2194 H         1 UNK         0.0807 
    120 H120      -81.8773   20.4125  -71.2644 H         1 UNK         0.0807 
    121 H121      -80.2719   21.0748  -71.5448 H         1 UNK         0.0807 
    122 H122      -83.3315   22.4198  -73.1298 H         1 UNK         0.2946 
    123 H123      -83.5240   24.7831  -72.9406 H         1 UNK         0.1144 
    124 H124      -84.1060   23.4211  -70.8730 H         1 UNK         0.0793 
    125 H125      -84.3323   25.1327  -70.5808 H         1 UNK         0.0793 
    126 H126      -82.9040   24.3139  -69.9522 H         1 UNK         0.0793 
    127 H127      -81.0707   25.8122  -71.9767 H         1 UNK         0.2896 
@<TRIPOS>BOND
     1    1    2 1    
     2    1   67 1    
     3    1   68 1    
     4    1   69 1    
     5    2    3 2    
     6    2    4 am   BACKBONE|DICT|INTERRES
     7    4    5 1    
     8    4   70 1    
     9    5    6 1    
    10    5   65 1    
    11    5   71 1    
    12    6    7 1    
    13    6   72 1    
    14    6   73 1    
    15    7    8 1    
    16    8    9 1    
    17    8   74 1    
    18    8   75 1    
    19    9   10 ar   
    20    9   14 ar   
    21   10   11 ar   
    22   10   76 1    
    23   11   12 ar   
    24   11   48 1    
    25   12   13 ar   
    26   12   77 1    
    27   13   14 ar   
    28   13   15 1    
    29   14   78 1    
    30   15   16 1    
    31   15   79 1    
    32   15   80 1    
    33   16   17 1    
    34   17   18 1    
    35   17   81 1    
    36   17   82 1    
    37   18   19 1    
    38   18   22 1    
    39   18   83 1    
    40   19   20 am   BACKBONE|DICT|INTERRES
    41   19   21 2    
    42   20   84 1    
    43   20   85 1    
    44   22   23 am   BACKBONE|DICT|INTERRES
    45   22   86 1    
    46   23   24 2    
    47   23   25 1    
    48   25   26 1    
    49   25   27 1    
    50   25   87 1    
    51   26   88 1    
    52   26   89 1    
    53   26   90 1    
    54   27   28 am   BACKBONE|DICT|INTERRES
    55   27   91 1    
    56   28   29 2    
    57   28   30 1    
    58   30   31 1    
    59   30   32 1    
    60   30   92 1    
    61   31   93 1    
    62   31   94 1    
    63   31   95 1    
    64   32   33 am   BACKBONE|DICT|INTERRES
    65   32   96 1    
    66   33   34 2    
    67   33   35 1    
    68   35   36 1    
    69   35   37 1    
    70   35   97 1    
    71   36   98 1    
    72   36   99 1    
    73   36  100 1    
    74   37   38 am   BACKBONE|DICT|INTERRES
    75   37  101 1    
    76   38   39 2    
    77   38   40 1    
    78   40   41 1    
    79   40   42 1    
    80   40  102 1    
    81   41  103 1    
    82   41  104 1    
    83   41  105 1    
    84   42   43 am   BACKBONE|DICT|INTERRES
    85   42  106 1    
    86   43   44 2    
    87   43   45 1    
    88   45   46 1    
    89   45   49 1    
    90   45  107 1    
    91   46   47 1    
    92   46  108 1    
    93   46  109 1    
    94   47   48 1    
    95   48  110 1    
    96   48  111 1    
    97   49   50 am   BACKBONE|DICT|INTERRES
    98   49  112 1    
    99   50   51 2    
   100   50   52 1    
   101   52   53 1    
   102   52   54 1    
   103   52  113 1    
   104   53  114 1    
   105   53  115 1    
   106   53  116 1    
   107   54   55 am   BACKBONE|DICT|INTERRES
   108   54  117 1    
   109   55   56 2    
   110   55   57 1    
   111   57   58 1    
   112   57   59 1    
   113   57  118 1    
   114   58  119 1    
   115   58  120 1    
   116   58  121 1    
   117   59   60 am   BACKBONE|DICT|INTERRES
   118   59  122 1    
   119   60   61 2    
   120   60   62 1    
   121   62   63 1    
   122   62   64 1    
   123   62  123 1    
   124   63  124 1    
   125   63  125 1    
   126   63  126 1    
   127   64   65 am   BACKBONE|DICT|INTERRES
   128   64  127 1    
   129   65   66 2    
@<TRIPOS>SUBSTRUCTURE
     1 UNK         1 GROUP             0       ****    0 ROOT    
