@<TRIPOS>MOLECULE
3R135
127   129    1
SMALL
USER_CHARGES


@<TRIPOS>ATOM
      1 CA        -82.9390   27.6376  -76.5426 C.3       0 UNK        -0.1998 
      2 C         -81.7083   28.0235  -75.7370 C.2       0 UNK         0.4909 
      3 O         -80.7723   28.6006  -76.2908 O.2       0 UNK        -0.5240 
      4 N         -81.7006   27.6963  -74.4371 N.am      1 UNK        -0.4739 
      5 CA        -80.6114   27.9453  -73.4823 C.3       1 UNK         0.0864 
      6 C6        -81.0289   27.5212  -72.0437 C.3       11 UNK        -0.0881 
      7 S7        -80.7215   28.8332  -70.8171 S.3       11 UNK        -0.2682 
      8 C8        -79.5462   28.0278  -69.6842 C.3       11 UNK         0.0289 
      9 C9        -78.1669   27.8811  -70.3069 C.ar      11 UNK        -0.0687 
     10 C10       -77.6601   26.6177  -70.6276 C.ar      11 UNK        -0.0823 
     11 C11       -76.3837   26.4888  -71.1834 C.ar      11 UNK        -0.0830 
     12 C12       -75.6245   27.6345  -71.4403 C.ar      11 UNK        -0.1021 
     13 C13       -76.1158   28.9016  -71.1112 C.ar      11 UNK        -0.0753 
     14 C14       -77.3850   29.0162  -70.5386 C.ar      11 UNK        -0.0933 
     15 C15       -75.2713   30.1457  -71.3431 C.3       11 UNK         0.0166 
     16 S16       -75.9624   31.1828  -72.6661 S.3       11 UNK        -0.2615 
     17 C17       -74.6950   32.4886  -72.8018 C.3       11 UNK        -0.0865 
     18 CA        -73.8422   32.3544  -74.1004 C.3       10 UNK         0.0862 
     19 C         -72.9691   33.6096  -74.4230 C.2       10 UNK         0.5551 
     20 N         -73.4346   34.8138  -74.1163 N.am      10 UNK        -0.7319 
     21 O         -71.8911   33.5136  -75.0073 O.2       10 UNK        -0.5018 
     22 N         -73.0879   31.0883  -74.1526 N.am      10 UNK        -0.4509 
     23 C         -72.0491   30.7453  -73.3760 C.2       10 UNK         0.4899 
     24 O         -71.6222   31.4438  -72.4556 O.2       10 UNK        -0.4839 
     25 CA        -71.3707   29.3883  -73.6485 C.3       9 UNK         0.0222 
     26 CB        -71.4764   28.4614  -72.4257 C.3       9 UNK        -0.1966 
     27 N         -71.9170   28.6909  -74.8155 N.am      9 UNK        -0.4218 
     28 C         -71.5041   28.8401  -76.0787 C.2       9 UNK         0.5020 
     29 O         -70.5817   29.5876  -76.4088 O.2       9 UNK        -0.5274 
     30 CA        -72.2512   28.0105  -77.1463 C.3       8 UNK         0.0270 
     31 CB        -71.6688   28.2017  -78.5599 C.3       8 UNK        -0.1976 
     32 N         -72.2966   26.5742  -76.8444 N.am      8 UNK        -0.4313 
     33 C         -73.0475   25.9936  -75.8999 C.2       8 UNK         0.5041 
     34 O         -73.7694   26.6202  -75.1218 O.2       8 UNK        -0.5577 
     35 CA        -72.9803   24.4684  -75.8045 C.3       7 UNK         0.0284 
     36 CB        -72.6365   24.0011  -74.3787 C.3       7 UNK        -0.1958 
     37 N         -74.2772   23.9391  -76.2112 N.am      7 UNK        -0.4454 
     38 C         -74.4683   22.7846  -76.8590 C.2       7 UNK         0.5089 
     39 O         -73.5605   22.0010  -77.1454 O.2       7 UNK        -0.5125 
     40 CA        -75.9223   22.4655  -77.2538 C.3       6 UNK         0.0408 
     41 CB        -76.0896   21.0938  -77.9414 C.3       6 UNK        -0.1791 
     42 N         -76.8403   22.6133  -76.1215 N.am      6 UNK        -0.4762 
     43 C         -76.8855   21.8901  -74.9904 C.2       6 UNK         0.5007 
     44 O         -76.1701   20.9132  -74.7645 O.2       6 UNK        -0.5032 
     45 CA        -77.9137   22.3320  -73.9226 C.3       5 UNK         0.0783 
     46 C46       -77.2426   23.0177  -72.7058 C.3       11 UNK        -0.0857 
     47 S47       -76.3063   24.5253  -73.1210 S.3       11 UNK        -0.2512 
     48 C48       -75.8089   25.1121  -71.4774 C.3       11 UNK         0.0225 
     49 N         -78.9951   23.1472  -74.4901 N.am      5 UNK        -0.4615 
     50 C         -80.0084   22.6427  -75.2094 C.2       4 UNK         0.5053 
     51 O         -80.1788   21.4383  -75.3996 O.2       4 UNK        -0.5105 
     52 CA        -80.9769   23.6455  -75.8496 C.3       4 UNK         0.0263 
     53 CB        -81.9991   24.1609  -74.8230 C.3       4 UNK        -0.1981 
     54 N         -80.2521   24.7650  -76.4536 N.am      4 UNK        -0.4224 
     55 C         -79.7137   24.7366  -77.6824 C.2       3 UNK         0.4895 
     56 O         -79.8172   23.7782  -78.4480 O.2       3 UNK        -0.5091 
     57 CA        -78.9310   25.9747  -78.1549 C.3       3 UNK         0.0250 
     58 CB        -79.7724   26.8065  -79.1365 C.3       3 UNK        -0.1996 
     59 N         -78.4879   26.8299  -77.0526 N.am      3 UNK        -0.4254 
     60 C         -77.4052   26.5821  -76.3016 C.2       2 UNK         0.5004 
     61 O         -76.6537   25.6255  -76.4885 O.2       2 UNK        -0.5226 
     62 CA        -77.1368   27.5456  -75.1306 C.3       2 UNK         0.0269 
     63 CB        -76.3159   28.7473  -75.6234 C.3       2 UNK        -0.1926 
     64 N         -78.3526   28.0257  -74.4598 N.am      2 UNK        -0.4687 
     65 C         -79.3179   27.2451  -73.9508 C.2       1 UNK         0.5165 
     66 O         -79.2690   26.0131  -73.9403 O.2       1 UNK        -0.5079 
     67 H67       -83.7611   27.3187  -75.9022 H         1 UNK         0.0900 
     68 H68       -83.2823   28.4862  -77.1336 H         1 UNK         0.0900 
     69 H69       -82.7014   26.8208  -77.2235 H         1 UNK         0.0900 
     70 H70       -82.5023   27.2159  -74.0556 H         1 UNK         0.2959 
     71 H71       -80.4361   29.0233  -73.5012 H         1 UNK         0.1079 
     72 H72       -80.5537   26.5905  -71.7266 H         1 UNK         0.0837 
     73 H73       -82.0988   27.3123  -71.9950 H         1 UNK         0.0837 
     74 H74       -79.9439   27.0611  -69.3709 H         1 UNK         0.0685 
     75 H75       -79.4638   28.6307  -68.7787 H         1 UNK         0.0685 
     76 H76       -78.2530   25.7330  -70.4399 H         1 UNK         0.1434 
     77 H77       -74.6456   27.5329  -71.8850 H         1 UNK         0.1329 
     78 H78       -77.7700   29.9939  -70.2823 H         1 UNK         0.1335 
     79 H79       -75.2178   30.7250  -70.4202 H         1 UNK         0.0680 
     80 H80       -74.2477   29.8708  -71.5968 H         1 UNK         0.0680 
     81 H81       -74.0581   32.4964  -71.9159 H         1 UNK         0.1032 
     82 H82       -75.2379   33.4338  -72.7851 H         1 UNK         0.1032 
     83 H83       -74.5378   32.2963  -74.9385 H         1 UNK         0.0461 
     84 H84       -72.8779   35.6223  -74.3464 H         1 UNK         0.3453 
     85 H85       -74.3305   34.9365  -73.6726 H         1 UNK         0.3453 
     86 H86       -73.3517   30.4541  -74.8903 H         1 UNK         0.2984 
     87 H87       -70.3117   29.5917  -73.8198 H         1 UNK         0.0554 
     88 H88       -71.0564   28.9322  -71.5359 H         1 UNK         0.0847 
     89 H89       -70.9303   27.5316  -72.5858 H         1 UNK         0.0847 
     90 H90       -72.5105   28.2057  -72.2022 H         1 UNK         0.0847 
     91 H91       -72.6761   28.0277  -74.6568 H         1 UNK         0.3141 
     92 H92       -73.2771   28.3821  -77.1669 H         1 UNK         0.0743 
     93 H93       -70.6374   27.8524  -78.6226 H         1 UNK         0.0784 
     94 H94       -72.2527   27.6633  -79.3068 H         1 UNK         0.0784 
     95 H95       -71.6750   29.2541  -78.8476 H         1 UNK         0.0784 
     96 H96       -71.7087   25.9855  -77.4174 H         1 UNK         0.3213 
     97 H97       -72.2053   24.1067  -76.4840 H         1 UNK         0.0855 
     98 H98       -73.3744   24.3432  -73.6529 H         1 UNK         0.0814 
     99 H99       -71.6670   24.3895  -74.0650 H         1 UNK         0.0814 
    100 H100      -72.5887   22.9138  -74.3184 H         1 UNK         0.0814 
    101 H101      -75.0745   24.5571  -76.0610 H         1 UNK         0.3105 
    102 H102      -76.2150   23.2274  -77.9779 H         1 UNK         0.0547 
    103 H103      -77.1286   20.9130  -78.2165 H         1 UNK         0.0837 
    104 H104      -75.7627   20.2728  -77.3030 H         1 UNK         0.0837 
    105 H105      -75.4986   21.0447  -78.8566 H         1 UNK         0.0837 
    106 H106      -77.4211   23.4409  -76.1533 H         1 UNK         0.3020 
    107 H107      -78.3647   21.4094  -73.5490 H         1 UNK         0.1245 
    108 H108      -76.5647   22.3196  -72.2112 H         1 UNK         0.0781 
    109 H109      -78.0023   23.2745  -71.9657 H         1 UNK         0.0781 
    110 H110      -74.7191   25.1421  -71.4338 H         1 UNK         0.0836 
    111 H111      -76.1202   24.4062  -70.7062 H         1 UNK         0.0836 
    112 H112      -78.9418   24.1506  -74.3286 H         1 UNK         0.3022 
    113 H113      -81.5325   23.1208  -76.6302 H         1 UNK         0.0747 
    114 H114      -82.7170   24.8375  -75.2854 H         1 UNK         0.0793 
    115 H115      -82.5670   23.3334  -74.3959 H         1 UNK         0.0793 
    116 H116      -81.5236   24.6853  -73.9944 H         1 UNK         0.0793 
    117 H117      -80.0449   25.5483  -75.8465 H         1 UNK         0.3047 
    118 H118      -78.0506   25.6145  -78.6922 H         1 UNK         0.0822 
    119 H119      -79.2050   27.6518  -79.5263 H         1 UNK         0.0807 
    120 H120      -80.6756   27.1977  -78.6688 H         1 UNK         0.0807 
    121 H121      -80.0833   26.2046  -79.9915 H         1 UNK         0.0807 
    122 H122      -79.0825   27.6190  -76.8143 H         1 UNK         0.2946 
    123 H123      -76.5370   27.0091  -74.3951 H         1 UNK         0.1144 
    124 H124      -75.9037   29.3073  -74.7870 H         1 UNK         0.0793 
    125 H125      -76.9112   29.4275  -76.2331 H         1 UNK         0.0793 
    126 H126      -75.4713   28.4203  -76.2298 H         1 UNK         0.0793 
    127 H127      -78.4907   29.0258  -74.4570 H         1 UNK         0.2896 
@<TRIPOS>BOND
     1    1    2 1    
     2    1   67 1    
     3    1   68 1    
     4    1   69 1    
     5    2    3 2    
     6    2    4 am   BACKBONE|DICT|INTERRES
     7    4    5 1    
     8    4   70 1    
     9    5    6 1    
    10    5   65 1    
    11    5   71 1    
    12    6    7 1    
    13    6   72 1    
    14    6   73 1    
    15    7    8 1    
    16    8    9 1    
    17    8   74 1    
    18    8   75 1    
    19    9   10 ar   
    20    9   14 ar   
    21   10   11 ar   
    22   10   76 1    
    23   11   12 ar   
    24   11   48 1    
    25   12   13 ar   
    26   12   77 1    
    27   13   14 ar   
    28   13   15 1    
    29   14   78 1    
    30   15   16 1    
    31   15   79 1    
    32   15   80 1    
    33   16   17 1    
    34   17   18 1    
    35   17   81 1    
    36   17   82 1    
    37   18   19 1    
    38   18   22 1    
    39   18   83 1    
    40   19   20 am   BACKBONE|DICT|INTERRES
    41   19   21 2    
    42   20   84 1    
    43   20   85 1    
    44   22   23 am   BACKBONE|DICT|INTERRES
    45   22   86 1    
    46   23   24 2    
    47   23   25 1    
    48   25   26 1    
    49   25   27 1    
    50   25   87 1    
    51   26   88 1    
    52   26   89 1    
    53   26   90 1    
    54   27   28 am   BACKBONE|DICT|INTERRES
    55   27   91 1    
    56   28   29 2    
    57   28   30 1    
    58   30   31 1    
    59   30   32 1    
    60   30   92 1    
    61   31   93 1    
    62   31   94 1    
    63   31   95 1    
    64   32   33 am   BACKBONE|DICT|INTERRES
    65   32   96 1    
    66   33   34 2    
    67   33   35 1    
    68   35   36 1    
    69   35   37 1    
    70   35   97 1    
    71   36   98 1    
    72   36   99 1    
    73   36  100 1    
    74   37   38 am   BACKBONE|DICT|INTERRES
    75   37  101 1    
    76   38   39 2    
    77   38   40 1    
    78   40   41 1    
    79   40   42 1    
    80   40  102 1    
    81   41  103 1    
    82   41  104 1    
    83   41  105 1    
    84   42   43 am   BACKBONE|DICT|INTERRES
    85   42  106 1    
    86   43   44 2    
    87   43   45 1    
    88   45   46 1    
    89   45   49 1    
    90   45  107 1    
    91   46   47 1    
    92   46  108 1    
    93   46  109 1    
    94   47   48 1    
    95   48  110 1    
    96   48  111 1    
    97   49   50 am   BACKBONE|DICT|INTERRES
    98   49  112 1    
    99   50   51 2    
   100   50   52 1    
   101   52   53 1    
   102   52   54 1    
   103   52  113 1    
   104   53  114 1    
   105   53  115 1    
   106   53  116 1    
   107   54   55 am   BACKBONE|DICT|INTERRES
   108   54  117 1    
   109   55   56 2    
   110   55   57 1    
   111   57   58 1    
   112   57   59 1    
   113   57  118 1    
   114   58  119 1    
   115   58  120 1    
   116   58  121 1    
   117   59   60 am   BACKBONE|DICT|INTERRES
   118   59  122 1    
   119   60   61 2    
   120   60   62 1    
   121   62   63 1    
   122   62   64 1    
   123   62  123 1    
   124   63  124 1    
   125   63  125 1    
   126   63  126 1    
   127   64   65 am   BACKBONE|DICT|INTERRES
   128   64  127 1    
   129   65   66 2    
@<TRIPOS>SUBSTRUCTURE
     1 UNK         1 GROUP             0       ****    0 ROOT    
