@<TRIPOS>MOLECULE
3R135
127   129    1
SMALL
USER_CHARGES


@<TRIPOS>ATOM
      1 CA        -84.4236   26.6377  -70.9832 C.3       0 UNK        -0.1998 
      2 C         -84.2670   26.8897  -72.4752 C.2       0 UNK         0.4909 
      3 O         -85.2014   26.6466  -73.2396 O.2       0 UNK        -0.5240 
      4 N         -83.0918   27.3765  -72.8946 N.am      1 UNK        -0.4739 
      5 CA        -82.7610   27.6818  -74.2943 C.3       1 UNK         0.0864 
      6 C6        -81.4813   28.5436  -74.4101 C.3       11 UNK        -0.0881 
      7 S7        -81.6028   30.1334  -73.5312 S.3       11 UNK        -0.2682 
      8 C8        -79.9327   30.8111  -73.8377 C.3       11 UNK         0.0289 
      9 C9        -78.7881   30.2144  -73.0105 C.ar      11 UNK        -0.0687 
     10 C10       -78.9789   29.2448  -72.0157 C.ar      11 UNK        -0.0823 
     11 C11       -77.9054   28.7794  -71.2501 C.ar      11 UNK        -0.0830 
     12 C12       -76.6246   29.2940  -71.4784 C.ar      11 UNK        -0.1021 
     13 C13       -76.4141   30.2588  -72.4682 C.ar      11 UNK        -0.0753 
     14 C14       -77.4966   30.7023  -73.2337 C.ar      11 UNK        -0.0933 
     15 C15       -75.0379   30.8787  -72.6746 C.3       11 UNK         0.0166 
     16 S16       -74.0426   29.9752  -73.9014 S.3       11 UNK        -0.2615 
     17 C17       -73.0853   28.8478  -72.8292 C.3       11 UNK        -0.0865 
     18 CA        -71.6640   29.3925  -72.4949 C.3       10 UNK         0.0862 
     19 C         -70.9472   28.5535  -71.3917 C.2       10 UNK         0.5551 
     20 N         -69.6313   28.3850  -71.4400 N.am      10 UNK        -0.7319 
     21 O         -71.5848   28.0798  -70.4544 O.2       10 UNK        -0.5018 
     22 N         -70.8518   29.6635  -73.6989 N.am      10 UNK        -0.4509 
     23 C         -70.4639   28.7539  -74.6008 C.2       10 UNK         0.4899 
     24 O         -70.6854   27.5439  -74.5109 O.2       10 UNK        -0.4839 
     25 CA        -69.6860   29.2778  -75.8117 C.3       9 UNK         0.0222 
     26 CB        -68.1673   29.1877  -75.5864 C.3       9 UNK        -0.1966 
     27 N         -70.0737   28.4539  -76.9489 N.am      9 UNK        -0.4218 
     28 C         -70.2287   28.8692  -78.2098 C.2       9 UNK         0.5020 
     29 O         -69.8826   29.9801  -78.6148 O.2       9 UNK        -0.5274 
     30 CA        -70.9065   27.8865  -79.1875 C.3       8 UNK         0.0270 
     31 CB        -69.8485   27.1362  -80.0135 C.3       8 UNK        -0.1976 
     32 N         -71.8017   26.9113  -78.5461 N.am      8 UNK        -0.4313 
     33 C         -72.9006   27.2182  -77.8401 C.2       8 UNK         0.5041 
     34 O         -73.2912   28.3761  -77.6706 O.2       8 UNK        -0.5577 
     35 CA        -73.6696   26.0345  -77.2181 C.3       7 UNK         0.0284 
     36 CB        -72.7576   25.1298  -76.3680 C.3       7 UNK        -0.1958 
     37 N         -74.7613   26.4992  -76.3660 N.am      7 UNK        -0.4454 
     38 C         -75.9718   26.8837  -76.7790 C.2       7 UNK         0.5089 
     39 O         -76.3581   26.8073  -77.9476 O.2       7 UNK        -0.5125 
     40 CA        -76.9064   27.4272  -75.6810 C.3       6 UNK         0.0408 
     41 CB        -78.2373   27.9535  -76.2435 C.3       6 UNK        -0.1791 
     42 N         -77.1869   26.4213  -74.6538 N.am      6 UNK        -0.4762 
     43 C         -76.3545   26.0685  -73.6626 C.2       6 UNK         0.5007 
     44 O         -75.2297   26.5441  -73.5157 O.2       6 UNK        -0.5032 
     45 CA        -76.8274   24.9532  -72.7182 C.3       5 UNK         0.0783 
     46 C46       -77.9230   25.4391  -71.7356 C.3       11 UNK        -0.0857 
     47 S47       -77.1807   26.2494  -70.2787 S.3       11 UNK        -0.2512 
     48 C48       -78.1543   27.7808  -70.1249 C.3       11 UNK         0.0225 
     49 N         -77.2543   23.7978  -73.5086 N.am      5 UNK        -0.4615 
     50 C         -76.4896   22.7214  -73.7462 C.2       4 UNK         0.5053 
     51 O         -75.3831   22.5398  -73.2377 O.2       4 UNK        -0.5105 
     52 CA        -77.0393   21.6589  -74.7170 C.3       4 UNK         0.0263 
     53 CB        -77.7692   20.5501  -73.9418 C.3       4 UNK        -0.1981 
     54 N         -77.9421   22.2152  -75.7247 N.am      4 UNK        -0.4224 
     55 C         -77.5784   23.0635  -76.6973 C.2       3 UNK         0.4895 
     56 O         -76.4093   23.3585  -76.9427 O.2       3 UNK        -0.5091 
     57 CA        -78.7092   23.7118  -77.5201 C.3       3 UNK         0.0250 
     58 CB        -78.8015   23.0633  -78.9108 C.3       3 UNK        -0.1996 
     59 N         -80.0324   23.6692  -76.8794 N.am      3 UNK        -0.4254 
     60 C         -80.3465   24.2637  -75.7203 C.2       2 UNK         0.5004 
     61 O         -79.5360   24.8833  -75.0249 O.2       2 UNK        -0.5226 
     62 CA        -81.7835   24.0773  -75.2121 C.3       2 UNK         0.0269 
     63 CB        -81.8507   22.8962  -74.2304 C.3       2 UNK        -0.1926 
     64 N         -82.2306   25.2900  -74.5301 N.am      2 UNK        -0.4687 
     65 C         -82.5878   26.4172  -75.1605 C.2       1 UNK         0.5165 
     66 O         -82.7453   26.4933  -76.3803 O.2       1 UNK        -0.5079 
     67 H67       -84.6395   25.5852  -70.8011 H         1 UNK         0.0900 
     68 H68       -85.2495   27.2285  -70.5879 H         1 UNK         0.0900 
     69 H69       -83.5232   26.9002  -70.4279 H         1 UNK         0.0900 
     70 H70       -82.3718   27.5882  -72.2192 H         1 UNK         0.2959 
     71 H71       -83.5938   28.2460  -74.7206 H         1 UNK         0.1079 
     72 H72       -80.6201   27.9922  -74.0278 H         1 UNK         0.0837 
     73 H73       -81.2668   28.7640  -75.4582 H         1 UNK         0.0837 
     74 H74       -79.7013   30.7138  -74.8994 H         1 UNK         0.0685 
     75 H75       -79.9724   31.8820  -73.6332 H         1 UNK         0.0685 
     76 H76       -79.9672   28.8647  -71.8061 H         1 UNK         0.1434 
     77 H77       -75.7972   28.9551  -70.8708 H         1 UNK         0.1329 
     78 H78       -77.3362   31.4584  -73.9904 H         1 UNK         0.1335 
     79 H79       -75.1498   31.9083  -73.0176 H         1 UNK         0.0680 
     80 H80       -74.5017   30.9409  -71.7263 H         1 UNK         0.0680 
     81 H81       -73.0087   27.8820  -73.3292 H         1 UNK         0.1032 
     82 H82       -73.6592   28.6566  -71.9216 H         1 UNK         0.1032 
     83 H83       -71.8051   30.3682  -72.0286 H         1 UNK         0.0461 
     84 H84       -69.1735   27.8529  -70.7168 H         1 UNK         0.3453 
     85 H85       -69.0960   28.7748  -72.1986 H         1 UNK         0.3453 
     86 H86       -70.6068   30.6320  -73.8474 H         1 UNK         0.2984 
     87 H87       -69.9712   30.3164  -75.9936 H         1 UNK         0.0554 
     88 H88       -67.6167   29.5422  -76.4579 H         1 UNK         0.0847 
     89 H89       -67.8498   28.1638  -75.3841 H         1 UNK         0.0847 
     90 H90       -67.8605   29.8003  -74.7379 H         1 UNK         0.0847 
     91 H91       -70.4243   27.5402  -76.6902 H         1 UNK         0.3141 
     92 H92       -71.5130   28.4836  -79.8718 H         1 UNK         0.0743 
     93 H93       -69.2251   26.4971  -79.3869 H         1 UNK         0.0784 
     94 H94       -70.3097   26.5122  -80.7793 H         1 UNK         0.0784 
     95 H95       -69.1857   27.8355  -80.5256 H         1 UNK         0.0784 
     96 H96       -71.5532   25.9381  -78.6531 H         1 UNK         0.3213 
     97 H97       -74.0883   25.4406  -78.0336 H         1 UNK         0.0855 
     98 H98       -72.2864   25.6826  -75.5549 H         1 UNK         0.0814 
     99 H99       -71.9647   24.6760  -76.9627 H         1 UNK         0.0814 
    100 H100      -73.3255   24.3113  -75.9238 H         1 UNK         0.0814 
    101 H101      -74.5614   26.6088  -75.3765 H         1 UNK         0.3105 
    102 H102      -76.3951   28.2706  -75.2114 H         1 UNK         0.0547 
    103 H103      -78.0681   28.6919  -77.0281 H         1 UNK         0.0837 
    104 H104      -78.8459   27.1540  -76.6673 H         1 UNK         0.0837 
    105 H105      -78.8144   28.4441  -75.4636 H         1 UNK         0.0837 
    106 H106      -78.0732   25.9280  -74.7443 H         1 UNK         0.3020 
    107 H107      -75.9575   24.6616  -72.1243 H         1 UNK         0.1245 
    108 H108      -78.4947   24.5876  -71.3631 H         1 UNK         0.0781 
    109 H109      -78.6491   26.0938  -72.2221 H         1 UNK         0.0781 
    110 H110      -77.9000   28.2581  -69.1777 H         1 UNK         0.0836 
    111 H111      -79.2113   27.5186  -70.0562 H         1 UNK         0.0836 
    112 H112      -78.1311   23.9022  -74.0074 H         1 UNK         0.3022 
    113 H113      -76.1876   21.2136  -75.2360 H         1 UNK         0.0747 
    114 H114      -78.1005   19.7521  -74.6068 H         1 UNK         0.0793 
    115 H115      -77.1116   20.0972  -73.1983 H         1 UNK         0.0793 
    116 H116      -78.6431   20.9333  -73.4132 H         1 UNK         0.0793 
    117 H117      -78.9241   22.0091  -75.6192 H         1 UNK         0.3047 
    118 H118      -78.4411   24.7626  -77.6504 H         1 UNK         0.0822 
    119 H119      -79.5286   23.5756  -79.5412 H         1 UNK         0.0807 
    120 H120      -79.0884   22.0127  -78.8490 H         1 UNK         0.0807 
    121 H121      -77.8412   23.1091  -79.4269 H         1 UNK         0.0807 
    122 H122      -80.7521   23.1639  -77.3772 H         1 UNK         0.2946 
    123 H123      -82.4464   23.8788  -76.0577 H         1 UNK         0.1144 
    124 H124      -81.5584   21.9644  -74.7164 H         1 UNK         0.0793 
    125 H125      -82.8625   22.7560  -73.8491 H         1 UNK         0.0793 
    126 H126      -81.1882   23.0407  -73.3756 H         1 UNK         0.0793 
    127 H127      -82.0963   25.3273  -73.5306 H         1 UNK         0.2896 
@<TRIPOS>BOND
     1    1    2 1    
     2    1   67 1    
     3    1   68 1    
     4    1   69 1    
     5    2    3 2    
     6    2    4 am   BACKBONE|DICT|INTERRES
     7    4    5 1    
     8    4   70 1    
     9    5    6 1    
    10    5   65 1    
    11    5   71 1    
    12    6    7 1    
    13    6   72 1    
    14    6   73 1    
    15    7    8 1    
    16    8    9 1    
    17    8   74 1    
    18    8   75 1    
    19    9   10 ar   
    20    9   14 ar   
    21   10   11 ar   
    22   10   76 1    
    23   11   12 ar   
    24   11   48 1    
    25   12   13 ar   
    26   12   77 1    
    27   13   14 ar   
    28   13   15 1    
    29   14   78 1    
    30   15   16 1    
    31   15   79 1    
    32   15   80 1    
    33   16   17 1    
    34   17   18 1    
    35   17   81 1    
    36   17   82 1    
    37   18   19 1    
    38   18   22 1    
    39   18   83 1    
    40   19   20 am   BACKBONE|DICT|INTERRES
    41   19   21 2    
    42   20   84 1    
    43   20   85 1    
    44   22   23 am   BACKBONE|DICT|INTERRES
    45   22   86 1    
    46   23   24 2    
    47   23   25 1    
    48   25   26 1    
    49   25   27 1    
    50   25   87 1    
    51   26   88 1    
    52   26   89 1    
    53   26   90 1    
    54   27   28 am   BACKBONE|DICT|INTERRES
    55   27   91 1    
    56   28   29 2    
    57   28   30 1    
    58   30   31 1    
    59   30   32 1    
    60   30   92 1    
    61   31   93 1    
    62   31   94 1    
    63   31   95 1    
    64   32   33 am   BACKBONE|DICT|INTERRES
    65   32   96 1    
    66   33   34 2    
    67   33   35 1    
    68   35   36 1    
    69   35   37 1    
    70   35   97 1    
    71   36   98 1    
    72   36   99 1    
    73   36  100 1    
    74   37   38 am   BACKBONE|DICT|INTERRES
    75   37  101 1    
    76   38   39 2    
    77   38   40 1    
    78   40   41 1    
    79   40   42 1    
    80   40  102 1    
    81   41  103 1    
    82   41  104 1    
    83   41  105 1    
    84   42   43 am   BACKBONE|DICT|INTERRES
    85   42  106 1    
    86   43   44 2    
    87   43   45 1    
    88   45   46 1    
    89   45   49 1    
    90   45  107 1    
    91   46   47 1    
    92   46  108 1    
    93   46  109 1    
    94   47   48 1    
    95   48  110 1    
    96   48  111 1    
    97   49   50 am   BACKBONE|DICT|INTERRES
    98   49  112 1    
    99   50   51 2    
   100   50   52 1    
   101   52   53 1    
   102   52   54 1    
   103   52  113 1    
   104   53  114 1    
   105   53  115 1    
   106   53  116 1    
   107   54   55 am   BACKBONE|DICT|INTERRES
   108   54  117 1    
   109   55   56 2    
   110   55   57 1    
   111   57   58 1    
   112   57   59 1    
   113   57  118 1    
   114   58  119 1    
   115   58  120 1    
   116   58  121 1    
   117   59   60 am   BACKBONE|DICT|INTERRES
   118   59  122 1    
   119   60   61 2    
   120   60   62 1    
   121   62   63 1    
   122   62   64 1    
   123   62  123 1    
   124   63  124 1    
   125   63  125 1    
   126   63  126 1    
   127   64   65 am   BACKBONE|DICT|INTERRES
   128   64  127 1    
   129   65   66 2    
@<TRIPOS>SUBSTRUCTURE
     1 UNK         1 GROUP             0       ****    0 ROOT    
