@<TRIPOS>MOLECULE
3R135
127   129    1
SMALL
USER_CHARGES


@<TRIPOS>ATOM
      1 CA        -83.1100   26.9879  -70.1868 C.3       0 UNK        -0.1998 
      2 C         -83.3799   27.1418  -71.6760 C.2       0 UNK         0.4909 
      3 O         -84.5088   26.9304  -72.1199 O.2       0 UNK        -0.5240 
      4 N         -82.3503   27.5097  -72.4498 N.am      1 UNK        -0.4739 
      5 CA        -82.4201   27.7116  -73.9048 C.3       1 UNK         0.0864 
      6 C6        -81.1679   28.4396  -74.4576 C.3       11 UNK        -0.0881 
      7 S7        -80.8456   30.0441  -73.6540 S.3       11 UNK        -0.2682 
      8 C8        -79.0766   30.2816  -74.0547 C.3       11 UNK         0.0289 
      9 C9        -78.0712   29.5173  -73.1865 C.ar      11 UNK        -0.0687 
     10 C10       -78.4449   28.5239  -72.2702 C.ar      11 UNK        -0.0823 
     11 C11       -77.4869   27.8580  -71.5009 C.ar      11 UNK        -0.0830 
     12 C12       -76.1397   28.2003  -71.6362 C.ar      11 UNK        -0.1021 
     13 C13       -75.7465   29.1788  -72.5513 C.ar      11 UNK        -0.0753 
     14 C14       -76.7139   29.8294  -73.3222 C.ar      11 UNK        -0.0933 
     15 C15       -74.2748   29.5148  -72.7206 C.3       11 UNK         0.0166 
     16 S16       -73.8253   31.0234  -71.8100 S.3       11 UNK        -0.2615 
     17 C17       -72.0337   31.0573  -72.1426 C.3       11 UNK        -0.0865 
     18 CA        -71.6991   31.7083  -73.5224 C.3       10 UNK         0.0862 
     19 C         -71.0858   33.1385  -73.4117 C.2       10 UNK         0.5551 
     20 N         -70.1840   33.5382  -74.3002 N.am      10 UNK        -0.7319 
     21 O         -71.4540   33.9116  -72.5306 O.2       10 UNK        -0.5018 
     22 N         -70.9849   30.7784  -74.4131 N.am      10 UNK        -0.4509 
     23 C         -69.7653   30.2632  -74.2226 C.2       10 UNK         0.4899 
     24 O         -69.0525   30.5189  -73.2509 O.2       10 UNK        -0.4839 
     25 CA        -69.2869   29.2644  -75.2939 C.3       9 UNK         0.0222 
     26 CB        -67.7638   29.0403  -75.2470 C.3       9 UNK        -0.1966 
     27 N         -69.9636   27.9703  -75.1668 N.am      9 UNK        -0.4218 
     28 C         -71.2383   27.7201  -75.4954 C.2       9 UNK         0.5020 
     29 O         -72.0059   28.5699  -75.9558 O.2       9 UNK        -0.5274 
     30 CA        -71.7328   26.2865  -75.2305 C.3       8 UNK         0.0270 
     31 CB        -72.0853   26.1002  -73.7460 C.3       8 UNK        -0.1976 
     32 N         -72.8976   25.9436  -76.0519 N.am      8 UNK        -0.4313 
     33 C         -72.8411   25.7160  -77.3732 C.2       8 UNK         0.5041 
     34 O         -71.7860   25.7105  -78.0113 O.2       8 UNK        -0.5577 
     35 CA        -74.1524   25.4142  -78.1270 C.3       7 UNK         0.0284 
     36 CB        -74.2153   23.9253  -78.5088 C.3       7 UNK        -0.1958 
     37 N         -75.3709   25.7683  -77.3969 N.am      7 UNK        -0.4454 
     38 C         -75.7822   27.0149  -77.1290 C.2       7 UNK         0.5089 
     39 O         -75.2151   28.0260  -77.5421 O.2       7 UNK        -0.5125 
     40 CA        -77.0330   27.1637  -76.2409 C.3       6 UNK         0.0408 
     41 CB        -78.2814   27.3688  -77.1123 C.3       6 UNK        -0.1791 
     42 N         -77.2672   26.0403  -75.3264 N.am      6 UNK        -0.4762 
     43 C         -76.4197   25.6143  -74.3762 C.2       6 UNK         0.5007 
     44 O         -75.3031   26.0959  -74.1903 O.2       6 UNK        -0.5032 
     45 CA        -76.8664   24.3873  -73.5617 C.3       5 UNK         0.0783 
     46 C46       -77.9369   24.7320  -72.4916 C.3       11 UNK        -0.0857 
     47 S47       -77.1793   25.1546  -70.8870 S.3       11 UNK        -0.2512 
     48 C48       -77.9103   26.7811  -70.5112 C.3       11 UNK         0.0225 
     49 N         -77.3248   23.3363  -74.4707 N.am      5 UNK        -0.4615 
     50 C         -76.5160   22.4745  -75.1020 C.2       4 UNK         0.5053 
     51 O         -75.2983   22.4284  -74.9303 O.2       4 UNK        -0.5105 
     52 CA        -77.1669   21.4967  -76.0976 C.3       4 UNK         0.0263 
     53 CB        -77.4577   20.1512  -75.4138 C.3       4 UNK        -0.1981 
     54 N         -78.4011   22.0089  -76.6985 N.am      4 UNK        -0.4224 
     55 C         -78.4587   23.0447  -77.5470 C.2       3 UNK         0.4895 
     56 O         -77.4726   23.6663  -77.9390 O.2       3 UNK        -0.5091 
     57 CA        -79.8604   23.4962  -77.9906 C.3       3 UNK         0.0250 
     58 CB        -80.3374   22.6686  -79.1948 C.3       3 UNK        -0.1996 
     59 N         -80.8728   23.4498  -76.9271 N.am      3 UNK        -0.4254 
     60 C         -80.7847   24.0999  -75.7586 C.2       2 UNK         0.5004 
     61 O         -79.7903   24.7357  -75.3977 O.2       2 UNK        -0.5226 
     62 CA        -81.9890   24.0013  -74.8102 C.3       2 UNK         0.0269 
     63 CB        -81.7687   22.8810  -73.7812 C.3       2 UNK        -0.1926 
     64 N         -82.1653   25.2714  -74.1063 N.am      2 UNK        -0.4687 
     65 C         -82.6135   26.3948  -74.6854 C.2       1 UNK         0.5165 
     66 O         -83.1237   26.4256  -75.8067 O.2       1 UNK        -0.5079 
     67 H67       -82.0728   27.2077  -69.9342 H         1 UNK         0.0900 
     68 H68       -83.3273   25.9683  -69.8697 H         1 UNK         0.0900 
     69 H69       -83.7475   27.6646  -69.6185 H         1 UNK         0.0900 
     70 H70       -81.4594   27.7100  -72.0228 H         1 UNK         0.2959 
     71 H71       -83.2942   28.3335  -74.1111 H         1 UNK         0.1079 
     72 H72       -80.2852   27.8046  -74.3568 H         1 UNK         0.0837 
     73 H73       -81.2813   28.6289  -75.5272 H         1 UNK         0.0837 
     74 H74       -78.9116   30.0219  -75.1015 H         1 UNK         0.0685 
     75 H75       -78.8642   31.3482  -73.9675 H         1 UNK         0.0685 
     76 H76       -79.4820   28.2615  -72.1418 H         1 UNK         0.1434 
     77 H77       -75.3955   27.6886  -71.0413 H         1 UNK         0.1329 
     78 H78       -76.4053   30.5872  -74.0296 H         1 UNK         0.1335 
     79 H79       -73.6604   28.6879  -72.3637 H         1 UNK         0.0680 
     80 H80       -74.0421   29.6381  -73.7798 H         1 UNK         0.0680 
     81 H81       -71.6593   30.0344  -72.0805 H         1 UNK         0.1032 
     82 H82       -71.5407   31.5760  -71.3183 H         1 UNK         0.1032 
     83 H83       -72.6352   31.8843  -74.0534 H         1 UNK         0.0461 
     84 H84       -69.7989   34.4671  -74.2319 H         1 UNK         0.3453 
     85 H85       -69.8840   32.9180  -75.0350 H         1 UNK         0.3453 
     86 H86       -71.5127   30.4323  -75.2078 H         1 UNK         0.2984 
     87 H87       -69.5277   29.6868  -76.2719 H         1 UNK         0.0554 
     88 H88       -67.4317   28.3963  -76.0615 H         1 UNK         0.0847 
     89 H89       -67.4477   28.5839  -74.3080 H         1 UNK         0.0847 
     90 H90       -67.2278   29.9853  -75.3454 H         1 UNK         0.0847 
     91 H91       -69.4184   27.2226  -74.7617 H         1 UNK         0.3141 
     92 H92       -70.9269   25.5933  -75.4816 H         1 UNK         0.0743 
     93 H93       -72.8689   26.7887  -73.4322 H         1 UNK         0.0784 
     94 H94       -72.4334   25.0868  -73.5445 H         1 UNK         0.0784 
     95 H95       -71.2199   26.2790  -73.1068 H         1 UNK         0.0784 
     96 H96       -73.8022   25.9785  -75.5920 H         1 UNK         0.3213 
     97 H97       -74.1324   26.0015  -79.0475 H         1 UNK         0.0855 
     98 H98       -74.3011   23.2873  -77.6281 H         1 UNK         0.0814 
     99 H99       -73.3188   23.6184  -79.0493 H         1 UNK         0.0814 
    100 H100      -75.0659   23.7184  -79.1582 H         1 UNK         0.0814 
    101 H101      -75.9609   25.0012  -77.0964 H         1 UNK         0.3105 
    102 H102      -76.8922   28.0547  -75.6271 H         1 UNK         0.0547 
    103 H103      -78.1702   28.2436  -77.7542 H         1 UNK         0.0837 
    104 H104      -78.4617   26.5097  -77.7588 H         1 UNK         0.0837 
    105 H105      -79.1724   27.5225  -76.5056 H         1 UNK         0.0837 
    106 H106      -78.1657   25.5674  -75.4126 H         1 UNK         0.3020 
    107 H107      -75.9787   24.0096  -73.0477 H         1 UNK         0.1245 
    108 H108      -78.5731   23.8655  -72.3048 H         1 UNK         0.0781 
    109 H109      -78.6141   25.5204  -72.8264 H         1 UNK         0.0781 
    110 H110      -77.5986   27.0822  -69.5101 H         1 UNK         0.0836 
    111 H111      -78.9962   26.6815  -70.4747 H         1 UNK         0.0836 
    112 H112      -78.3030   23.3679  -74.7275 H         1 UNK         0.3022 
    113 H113      -76.4484   21.3243  -76.9021 H         1 UNK         0.0747 
    114 H114      -77.8430   19.4194  -76.1243 H         1 UNK         0.0793 
    115 H115      -76.5497   19.7304  -74.9793 H         1 UNK         0.0793 
    116 H116      -78.1861   20.2554  -74.6085 H         1 UNK         0.0793 
    117 H117      -79.2644   21.5598  -76.4296 H         1 UNK         0.3047 
    118 H118      -79.7771   24.5369  -78.3093 H         1 UNK         0.0822 
    119 H119      -81.2769   23.0520  -79.5933 H         1 UNK         0.0807 
    120 H120      -80.4855   21.6200  -78.9337 H         1 UNK         0.0807 
    121 H121      -79.6075   22.7027  -80.0051 H         1 UNK         0.0807 
    122 H122      -81.7181   22.9375  -77.1357 H         1 UNK         0.2946 
    123 H123      -82.8913   23.7880  -75.3881 H         1 UNK         0.1144 
    124 H124      -82.6145   22.7996  -73.0982 H         1 UNK         0.0793 
    125 H125      -80.8714   23.0489  -73.1841 H         1 UNK         0.0793 
    126 H126      -81.6572   21.9137  -74.2729 H         1 UNK         0.0793 
    127 H127      -81.7446   25.3470  -73.1926 H         1 UNK         0.2896 
@<TRIPOS>BOND
     1    1    2 1    
     2    1   67 1    
     3    1   68 1    
     4    1   69 1    
     5    2    3 2    
     6    2    4 am   BACKBONE|DICT|INTERRES
     7    4    5 1    
     8    4   70 1    
     9    5    6 1    
    10    5   65 1    
    11    5   71 1    
    12    6    7 1    
    13    6   72 1    
    14    6   73 1    
    15    7    8 1    
    16    8    9 1    
    17    8   74 1    
    18    8   75 1    
    19    9   10 ar   
    20    9   14 ar   
    21   10   11 ar   
    22   10   76 1    
    23   11   12 ar   
    24   11   48 1    
    25   12   13 ar   
    26   12   77 1    
    27   13   14 ar   
    28   13   15 1    
    29   14   78 1    
    30   15   16 1    
    31   15   79 1    
    32   15   80 1    
    33   16   17 1    
    34   17   18 1    
    35   17   81 1    
    36   17   82 1    
    37   18   19 1    
    38   18   22 1    
    39   18   83 1    
    40   19   20 am   BACKBONE|DICT|INTERRES
    41   19   21 2    
    42   20   84 1    
    43   20   85 1    
    44   22   23 am   BACKBONE|DICT|INTERRES
    45   22   86 1    
    46   23   24 2    
    47   23   25 1    
    48   25   26 1    
    49   25   27 1    
    50   25   87 1    
    51   26   88 1    
    52   26   89 1    
    53   26   90 1    
    54   27   28 am   BACKBONE|DICT|INTERRES
    55   27   91 1    
    56   28   29 2    
    57   28   30 1    
    58   30   31 1    
    59   30   32 1    
    60   30   92 1    
    61   31   93 1    
    62   31   94 1    
    63   31   95 1    
    64   32   33 am   BACKBONE|DICT|INTERRES
    65   32   96 1    
    66   33   34 2    
    67   33   35 1    
    68   35   36 1    
    69   35   37 1    
    70   35   97 1    
    71   36   98 1    
    72   36   99 1    
    73   36  100 1    
    74   37   38 am   BACKBONE|DICT|INTERRES
    75   37  101 1    
    76   38   39 2    
    77   38   40 1    
    78   40   41 1    
    79   40   42 1    
    80   40  102 1    
    81   41  103 1    
    82   41  104 1    
    83   41  105 1    
    84   42   43 am   BACKBONE|DICT|INTERRES
    85   42  106 1    
    86   43   44 2    
    87   43   45 1    
    88   45   46 1    
    89   45   49 1    
    90   45  107 1    
    91   46   47 1    
    92   46  108 1    
    93   46  109 1    
    94   47   48 1    
    95   48  110 1    
    96   48  111 1    
    97   49   50 am   BACKBONE|DICT|INTERRES
    98   49  112 1    
    99   50   51 2    
   100   50   52 1    
   101   52   53 1    
   102   52   54 1    
   103   52  113 1    
   104   53  114 1    
   105   53  115 1    
   106   53  116 1    
   107   54   55 am   BACKBONE|DICT|INTERRES
   108   54  117 1    
   109   55   56 2    
   110   55   57 1    
   111   57   58 1    
   112   57   59 1    
   113   57  118 1    
   114   58  119 1    
   115   58  120 1    
   116   58  121 1    
   117   59   60 am   BACKBONE|DICT|INTERRES
   118   59  122 1    
   119   60   61 2    
   120   60   62 1    
   121   62   63 1    
   122   62   64 1    
   123   62  123 1    
   124   63  124 1    
   125   63  125 1    
   126   63  126 1    
   127   64   65 am   BACKBONE|DICT|INTERRES
   128   64  127 1    
   129   65   66 2    
@<TRIPOS>SUBSTRUCTURE
     1 UNK         1 GROUP             0       ****    0 ROOT    
