@<TRIPOS>MOLECULE
3R135
127   129    1
SMALL
USER_CHARGES


@<TRIPOS>ATOM
      1 CA        -82.8023   26.6216  -71.5692 C.3       0 UNK        -0.1998 
      2 C         -81.6003   26.5711  -72.4998 C.2       0 UNK         0.4909 
      3 O         -81.5048   27.3807  -73.4218 O.2       0 UNK        -0.5240 
      4 N         -80.6816   25.6306  -72.2636 N.am      1 UNK        -0.4739 
      5 CA        -79.4740   25.4141  -73.0583 C.3       1 UNK         0.0864 
      6 C6        -78.3281   26.4066  -72.7345 C.3       11 UNK        -0.0881 
      7 S7        -77.8563   26.5360  -70.9735 S.3       11 UNK        -0.2682 
      8 C8        -78.7407   28.0411  -70.4384 C.3       11 UNK         0.0289 
      9 C9        -78.2093   29.3058  -71.1013 C.ar      11 UNK        -0.0687 
     10 C10       -78.8413   29.8293  -72.2333 C.ar      11 UNK        -0.0823 
     11 C11       -78.3464   30.9744  -72.8643 C.ar      11 UNK        -0.0830 
     12 C12       -77.2387   31.6314  -72.3183 C.ar      11 UNK        -0.1021 
     13 C13       -76.6252   31.1447  -71.1593 C.ar      11 UNK        -0.0753 
     14 C14       -77.1040   29.9723  -70.5659 C.ar      11 UNK        -0.0933 
     15 C15       -75.4780   31.9077  -70.5134 C.3       11 UNK         0.0166 
     16 S16       -73.8669   31.1271  -70.8269 S.3       11 UNK        -0.2615 
     17 C17       -73.5389   31.6018  -72.5616 C.3       11 UNK        -0.0865 
     18 CA        -73.6972   30.4238  -73.5687 C.3       10 UNK         0.0862 
     19 C         -73.4344   30.8760  -75.0356 C.2       10 UNK         0.5551 
     20 N         -74.2269   31.8132  -75.5405 N.am      10 UNK        -0.7319 
     21 O         -72.5369   30.4005  -75.7273 O.2       10 UNK        -0.5018 
     22 N         -72.9558   29.2149  -73.1712 N.am      10 UNK        -0.4509 
     23 C         -71.6394   29.1018  -72.9419 C.2       10 UNK         0.4899 
     24 O         -70.8323   30.0254  -73.0551 O.2       10 UNK        -0.4839 
     25 CA        -71.1282   27.7293  -72.4567 C.3       9 UNK         0.0222 
     26 CB        -70.7906   27.7884  -70.9571 C.3       9 UNK        -0.1966 
     27 N         -72.0775   26.6346  -72.6867 N.am      9 UNK        -0.4218 
     28 C         -72.3187   26.0821  -73.8826 C.2       9 UNK         0.5020 
     29 O         -71.6907   26.3817  -74.9006 O.2       9 UNK        -0.5274 
     30 CA        -73.4415   25.0282  -73.9465 C.3       8 UNK         0.0270 
     31 CB        -74.6088   25.3356  -72.9854 C.3       8 UNK        -0.1976 
     32 N         -73.9653   24.9748  -75.3086 N.am      8 UNK        -0.4313 
     33 C         -73.6660   24.0435  -76.2239 C.2       8 UNK         0.5041 
     34 O         -72.9982   23.0358  -75.9854 O.2       8 UNK        -0.5577 
     35 CA        -74.1978   24.2634  -77.6530 C.3       7 UNK         0.0284 
     36 CB        -75.4192   23.3730  -77.9243 C.3       7 UNK        -0.1958 
     37 N         -74.5571   25.6588  -77.9102 N.am      7 UNK        -0.4454 
     38 C         -73.6747   26.6322  -78.1733 C.2       7 UNK         0.5089 
     39 O         -72.4753   26.4330  -78.3662 O.2       7 UNK        -0.5125 
     40 CA        -74.2170   28.0723  -78.2369 C.3       6 UNK         0.0408 
     41 CB        -74.2737   28.5605  -79.6935 C.3       6 UNK        -0.1791 
     42 N         -75.5386   28.2496  -77.6239 N.am      6 UNK        -0.4762 
     43 C         -75.8072   28.1534  -76.3129 C.2       6 UNK         0.5007 
     44 O         -74.9820   27.8280  -75.4607 O.2       6 UNK        -0.5032 
     45 CA        -77.2687   28.4048  -75.9049 C.3       5 UNK         0.0783 
     46 C46       -77.5954   29.9185  -75.9548 C.3       11 UNK        -0.0857 
     47 S47       -79.2978   30.2807  -75.4100 S.3       11 UNK        -0.2512 
     48 C48       -79.0360   31.5308  -74.1054 C.3       11 UNK         0.0225 
     49 N         -78.1858   27.5947  -76.7193 N.am      5 UNK        -0.4615 
     50 C         -78.2527   26.2580  -76.6905 C.2       4 UNK         0.5053 
     51 O         -77.5754   25.5500  -75.9376 O.2       4 UNK        -0.5105 
     52 CA        -79.2180   25.5968  -77.6819 C.3       4 UNK         0.0263 
     53 CB        -78.6282   25.5925  -79.1046 C.3       4 UNK        -0.1981 
     54 N         -79.4594   24.2296  -77.2336 N.am      4 UNK        -0.4224 
     55 C         -80.5000   23.4472  -77.5408 C.2       3 UNK         0.4895 
     56 O         -81.3810   23.7732  -78.3370 O.2       3 UNK        -0.5091 
     57 CA        -80.6219   22.0933  -76.8068 C.3       3 UNK         0.0250 
     58 CB        -80.4345   20.9024  -77.7692 C.3       3 UNK        -0.1996 
     59 N         -79.7761   21.9888  -75.6041 N.am      3 UNK        -0.4254 
     60 C         -78.4474   21.8143  -75.5219 C.2       2 UNK         0.5004 
     61 O         -77.7245   21.5470  -76.4799 O.2       2 UNK        -0.5226 
     62 CA        -77.8256   22.1326  -74.1524 C.3       2 UNK         0.0269 
     63 CB        -76.2990   21.9364  -74.1263 C.3       2 UNK        -0.1926 
     64 N         -78.1358   23.5321  -73.8492 N.am      2 UNK        -0.4687 
     65 C         -79.0660   23.9349  -72.9761 C.2       1 UNK         0.5165 
     66 O         -79.6408   23.1778  -72.1886 O.2       1 UNK        -0.5079 
     67 H67       -83.7214   26.4716  -72.1348 H         1 UNK         0.0900 
     68 H68       -82.8568   27.5941  -71.0808 H         1 UNK         0.0900 
     69 H69       -82.7505   25.8560  -70.7952 H         1 UNK         0.0900 
     70 H70       -80.8128   24.9462  -71.5287 H         1 UNK         0.2959 
     71 H71       -79.7515   25.5677  -74.1036 H         1 UNK         0.1079 
     72 H72       -77.4318   26.1572  -73.3021 H         1 UNK         0.0837 
     73 H73       -78.6203   27.3848  -73.1024 H         1 UNK         0.0837 
     74 H74       -79.8070   27.9286  -70.6337 H         1 UNK         0.0685 
     75 H75       -78.6446   28.1322  -69.3555 H         1 UNK         0.0685 
     76 H76       -79.7157   29.3363  -72.6371 H         1 UNK         0.1434 
     77 H77       -76.8698   32.5378  -72.7783 H         1 UNK         0.1329 
     78 H78       -76.6236   29.5868  -69.6768 H         1 UNK         0.1335 
     79 H79       -75.4586   32.9458  -70.8487 H         1 UNK         0.0680 
     80 H80       -75.6393   31.9452  -69.4350 H         1 UNK         0.0680 
     81 H81       -72.5276   32.0085  -72.6108 H         1 UNK         0.1032 
     82 H82       -74.1958   32.4291  -72.8321 H         1 UNK         0.1032 
     83 H83       -74.7432   30.1139  -73.5461 H         1 UNK         0.0461 
     84 H84       -74.9655   32.2302  -74.9985 H         1 UNK         0.3453 
     85 H85       -74.0672   32.1221  -76.4865 H         1 UNK         0.3453 
     86 H86       -73.5163   28.3796  -73.1048 H         1 UNK         0.2984 
     87 H87       -70.2079   27.5107  -73.0026 H         1 UNK         0.0554 
     88 H88       -70.3713   26.8459  -70.6046 H         1 UNK         0.0847 
     89 H89       -71.6707   28.0147  -70.3534 H         1 UNK         0.0847 
     90 H90       -70.0514   28.5648  -70.7543 H         1 UNK         0.0847 
     91 H91       -72.6201   26.3278  -71.8919 H         1 UNK         0.3141 
     92 H92       -73.0087   24.0654  -73.6680 H         1 UNK         0.0743 
     93 H93       -74.9928   26.3473  -73.1225 H         1 UNK         0.0784 
     94 H94       -75.4379   24.6464  -73.1420 H         1 UNK         0.0784 
     95 H95       -74.3113   25.2309  -71.9417 H         1 UNK         0.0784 
     96 H96       -74.4417   25.8164  -75.6135 H         1 UNK         0.3213 
     97 H97       -73.4044   23.9702  -78.3442 H         1 UNK         0.0855 
     98 H98       -76.2635   23.6454  -77.2921 H         1 UNK         0.0814 
     99 H99       -75.1926   22.3246  -77.7247 H         1 UNK         0.0814 
    100 H100      -75.7397   23.4408  -78.9637 H         1 UNK         0.0814 
    101 H101      -75.5219   25.9174  -77.7672 H         1 UNK         0.3105 
    102 H102      -73.5113   28.7035  -77.6933 H         1 UNK         0.0547 
    103 H103      -73.2967   28.4766  -80.1717 H         1 UNK         0.0837 
    104 H104      -74.9778   27.9775  -80.2885 H         1 UNK         0.0837 
    105 H105      -74.5689   29.6083  -79.7508 H         1 UNK         0.0837 
    106 H106      -76.2926   28.4959  -78.2492 H         1 UNK         0.3020 
    107 H107      -77.3616   28.0803  -74.8686 H         1 UNK         0.1245 
    108 H108      -77.4766   30.3122  -76.9660 H         1 UNK         0.0781 
    109 H109      -76.8948   30.4749  -75.3295 H         1 UNK         0.0781 
    110 H110      -80.0058   31.9339  -73.8106 H         1 UNK         0.0836 
    111 H111      -78.4732   32.3658  -74.5256 H         1 UNK         0.0836 
    112 H112      -78.7984   28.1059  -77.3385 H         1 UNK         0.3022 
    113 H113      -80.1603   26.1485  -77.6700 H         1 UNK         0.0747 
    114 H114      -79.3148   25.1344  -79.8166 H         1 UNK         0.0793 
    115 H115      -78.4325   26.6060  -79.4563 H         1 UNK         0.0793 
    116 H116      -77.6883   25.0420  -79.1500 H         1 UNK         0.0793 
    117 H117      -78.7681   23.8868  -76.5799 H         1 UNK         0.3047 
    118 H118      -81.6481   22.0483  -76.4385 H         1 UNK         0.0822 
    119 H119      -80.5159   19.9499  -77.2458 H         1 UNK         0.0807 
    120 H120      -79.4684   20.9297  -78.2736 H         1 UNK         0.0807 
    121 H121      -81.1991   20.9115  -78.5470 H         1 UNK         0.0807 
    122 H122      -80.2565   22.2043  -74.7406 H         1 UNK         0.2946 
    123 H123      -78.2697   21.4558  -73.4186 H         1 UNK         0.1144 
    124 H124      -75.8895   22.1499  -73.1391 H         1 UNK         0.0793 
    125 H125      -75.7974   22.5851  -74.8436 H         1 UNK         0.0793 
    126 H126      -76.0319   20.9082  -74.3733 H         1 UNK         0.0793 
    127 H127      -77.7322   24.2215  -74.4782 H         1 UNK         0.2896 
@<TRIPOS>BOND
     1    1    2 1    
     2    1   67 1    
     3    1   68 1    
     4    1   69 1    
     5    2    3 2    
     6    2    4 am   BACKBONE|DICT|INTERRES
     7    4    5 1    
     8    4   70 1    
     9    5    6 1    
    10    5   65 1    
    11    5   71 1    
    12    6    7 1    
    13    6   72 1    
    14    6   73 1    
    15    7    8 1    
    16    8    9 1    
    17    8   74 1    
    18    8   75 1    
    19    9   10 ar   
    20    9   14 ar   
    21   10   11 ar   
    22   10   76 1    
    23   11   12 ar   
    24   11   48 1    
    25   12   13 ar   
    26   12   77 1    
    27   13   14 ar   
    28   13   15 1    
    29   14   78 1    
    30   15   16 1    
    31   15   79 1    
    32   15   80 1    
    33   16   17 1    
    34   17   18 1    
    35   17   81 1    
    36   17   82 1    
    37   18   19 1    
    38   18   22 1    
    39   18   83 1    
    40   19   20 am   BACKBONE|DICT|INTERRES
    41   19   21 2    
    42   20   84 1    
    43   20   85 1    
    44   22   23 am   BACKBONE|DICT|INTERRES
    45   22   86 1    
    46   23   24 2    
    47   23   25 1    
    48   25   26 1    
    49   25   27 1    
    50   25   87 1    
    51   26   88 1    
    52   26   89 1    
    53   26   90 1    
    54   27   28 am   BACKBONE|DICT|INTERRES
    55   27   91 1    
    56   28   29 2    
    57   28   30 1    
    58   30   31 1    
    59   30   32 1    
    60   30   92 1    
    61   31   93 1    
    62   31   94 1    
    63   31   95 1    
    64   32   33 am   BACKBONE|DICT|INTERRES
    65   32   96 1    
    66   33   34 2    
    67   33   35 1    
    68   35   36 1    
    69   35   37 1    
    70   35   97 1    
    71   36   98 1    
    72   36   99 1    
    73   36  100 1    
    74   37   38 am   BACKBONE|DICT|INTERRES
    75   37  101 1    
    76   38   39 2    
    77   38   40 1    
    78   40   41 1    
    79   40   42 1    
    80   40  102 1    
    81   41  103 1    
    82   41  104 1    
    83   41  105 1    
    84   42   43 am   BACKBONE|DICT|INTERRES
    85   42  106 1    
    86   43   44 2    
    87   43   45 1    
    88   45   46 1    
    89   45   49 1    
    90   45  107 1    
    91   46   47 1    
    92   46  108 1    
    93   46  109 1    
    94   47   48 1    
    95   48  110 1    
    96   48  111 1    
    97   49   50 am   BACKBONE|DICT|INTERRES
    98   49  112 1    
    99   50   51 2    
   100   50   52 1    
   101   52   53 1    
   102   52   54 1    
   103   52  113 1    
   104   53  114 1    
   105   53  115 1    
   106   53  116 1    
   107   54   55 am   BACKBONE|DICT|INTERRES
   108   54  117 1    
   109   55   56 2    
   110   55   57 1    
   111   57   58 1    
   112   57   59 1    
   113   57  118 1    
   114   58  119 1    
   115   58  120 1    
   116   58  121 1    
   117   59   60 am   BACKBONE|DICT|INTERRES
   118   59  122 1    
   119   60   61 2    
   120   60   62 1    
   121   62   63 1    
   122   62   64 1    
   123   62  123 1    
   124   63  124 1    
   125   63  125 1    
   126   63  126 1    
   127   64   65 am   BACKBONE|DICT|INTERRES
   128   64  127 1    
   129   65   66 2    
@<TRIPOS>SUBSTRUCTURE
     1 UNK         1 GROUP             0       ****    0 ROOT    
