@<TRIPOS>MOLECULE
3R135
127   129    1
SMALL
USER_CHARGES


@<TRIPOS>ATOM
      1 CA        -79.0897   21.3214  -75.1350 C.3       0 UNK        -0.1998 
      2 C         -78.8275   22.1204  -73.8682 C.2       0 UNK         0.4909 
      3 O         -78.7811   21.5478  -72.7799 O.2       0 UNK        -0.5240 
      4 N         -78.6915   23.4456  -73.9963 N.am      1 UNK        -0.4739 
      5 CA        -78.4977   24.3962  -72.8917 C.3       1 UNK         0.0864 
      6 C6        -77.6994   25.6445  -73.3495 C.3       11 UNK        -0.0881 
      7 S7        -76.0528   25.2486  -74.0336 S.3       11 UNK        -0.2682 
      8 C8        -75.0316   26.5845  -73.3275 C.3       11 UNK         0.0289 
      9 C9        -75.5606   27.9641  -73.6929 C.ar      11 UNK        -0.0687 
     10 C10       -75.5100   28.4092  -75.0150 C.ar      11 UNK        -0.0823 
     11 C11       -76.0396   29.6539  -75.3677 C.ar      11 UNK        -0.0830 
     12 C12       -76.5813   30.4766  -74.3729 C.ar      11 UNK        -0.1021 
     13 C13       -76.6093   30.0568  -73.0386 C.ar      11 UNK        -0.0753 
     14 C14       -76.1095   28.7921  -72.7106 C.ar      11 UNK        -0.0933 
     15 C15       -77.2362   30.9411  -71.9653 C.3       11 UNK         0.0166 
     16 S16       -76.2007   31.1093  -70.4703 S.3       11 UNK        -0.2615 
     17 C17       -75.0935   32.5104  -70.8704 C.3       11 UNK        -0.0865 
     18 CA        -73.6237   32.1286  -71.1987 C.3       10 UNK         0.0862 
     19 C         -72.9063   31.3801  -70.0377 C.2       10 UNK         0.5551 
     20 N         -72.5409   32.0944  -68.9811 N.am      10 UNK        -0.7319 
     21 O         -72.7011   30.1683  -70.0680 O.2       10 UNK        -0.5018 
     22 N         -73.5353   31.4569  -72.4993 N.am      10 UNK        -0.4509 
     23 C         -72.4138   31.2817  -73.2075 C.2       10 UNK         0.4899 
     24 O         -71.2922   31.6523  -72.8537 O.2       10 UNK        -0.4839 
     25 CA        -72.6134   30.6758  -74.6026 C.3       9 UNK         0.0222 
     26 CB        -72.7443   31.7865  -75.6578 C.3       9 UNK        -0.1966 
     27 N         -71.5662   29.7417  -75.0107 N.am      9 UNK        -0.4218 
     28 C         -71.3360   28.5531  -74.4399 C.2       9 UNK         0.5020 
     29 O         -71.8742   28.1571  -73.4036 O.2       9 UNK        -0.5274 
     30 CA        -70.3376   27.6392  -75.1736 C.3       8 UNK         0.0270 
     31 CB        -68.9540   27.7033  -74.5057 C.3       8 UNK        -0.1976 
     32 N         -70.7888   26.2438  -75.2240 N.am      8 UNK        -0.4313 
     33 C         -71.9375   25.8163  -75.7685 C.2       8 UNK         0.5041 
     34 O         -72.7451   26.5528  -76.3435 O.2       8 UNK        -0.5577 
     35 CA        -72.2235   24.3098  -75.6622 C.3       7 UNK         0.0284 
     36 CB        -72.1998   23.8076  -74.2051 C.3       7 UNK        -0.1958 
     37 N         -73.5366   24.0306  -76.2369 N.am      7 UNK        -0.4454 
     38 C         -73.8479   23.0049  -77.0342 C.2       7 UNK         0.5089 
     39 O         -73.0482   22.1270  -77.3617 O.2       7 UNK        -0.5125 
     40 CA        -75.2989   22.9251  -77.5480 C.3       6 UNK         0.0408 
     41 CB        -76.0485   21.7821  -76.8490 C.3       6 UNK        -0.1791 
     42 N         -76.0622   24.1657  -77.3735 N.am      6 UNK        -0.4762 
     43 C         -75.9483   25.2526  -78.1463 C.2       6 UNK         0.5007 
     44 O         -75.2046   25.3107  -79.1272 O.2       6 UNK        -0.5032 
     45 CA        -76.8426   26.4563  -77.7782 C.3       5 UNK         0.0783 
     46 C46       -76.3128   27.7761  -78.3984 C.3       11 UNK        -0.0857 
     47 S47       -77.2344   29.2533  -77.8446 S.3       11 UNK        -0.2512 
     48 C48       -76.0026   30.1200  -76.8162 C.3       11 UNK         0.0225 
     49 N         -78.2318   26.1922  -78.1617 N.am      5 UNK        -0.4615 
     50 C         -79.0891   25.4336  -77.4709 C.2       4 UNK         0.5053 
     51 O         -78.7990   24.8313  -76.4344 O.2       4 UNK        -0.5105 
     52 CA        -80.5027   25.2877  -78.0503 C.3       4 UNK         0.0263 
     53 CB        -80.6671   23.9077  -78.7074 C.3       4 UNK        -0.1981 
     54 N         -81.5170   25.4505  -77.0074 N.am      4 UNK        -0.4224 
     55 C         -81.8328   26.6209  -76.4326 C.2       3 UNK         0.4895 
     56 O         -81.3377   27.7018  -76.7516 O.2       3 UNK        -0.5091 
     57 CA        -82.8666   26.5705  -75.3030 C.3       3 UNK         0.0250 
     58 CB        -84.2732   26.2460  -75.8464 C.3       3 UNK        -0.1996 
     59 N         -82.4459   25.6011  -74.2928 N.am      3 UNK        -0.4254 
     60 C         -82.9264   25.5082  -73.0459 C.2       2 UNK         0.5004 
     61 O         -83.8236   26.2232  -72.5982 O.2       2 UNK        -0.5226 
     62 CA        -82.2991   24.4334  -72.1404 C.3       2 UNK         0.0269 
     63 CB        -83.1576   23.1579  -72.1488 C.3       2 UNK        -0.1926 
     64 N         -80.9321   24.0929  -72.5448 N.am      2 UNK        -0.4687 
     65 C         -79.8420   24.8143  -72.2442 C.2       1 UNK         0.5165 
     66 O         -79.8808   25.7976  -71.5029 O.2       1 UNK        -0.5079 
     67 H67       -79.1122   21.9590  -76.0186 H         1 UNK         0.0900 
     68 H68       -80.0494   20.8105  -75.0635 H         1 UNK         0.0900 
     69 H69       -78.3147   20.5682  -75.2724 H         1 UNK         0.0900 
     70 H70       -78.7382   23.8754  -74.9200 H         1 UNK         0.2959 
     71 H71       -77.9205   23.9048  -72.1055 H         1 UNK         0.1079 
     72 H72       -77.5632   26.3242  -72.5069 H         1 UNK         0.0837 
     73 H73       -78.2550   26.2059  -74.1033 H         1 UNK         0.0837 
     74 H74       -74.9780   26.4606  -72.2449 H         1 UNK         0.0685 
     75 H75       -74.0115   26.4874  -73.6972 H         1 UNK         0.0685 
     76 H76       -75.0579   27.7794  -75.7673 H         1 UNK         0.1434 
     77 H77       -76.9889   31.4423  -74.6398 H         1 UNK         0.1329 
     78 H78       -76.1529   28.4501  -71.6856 H         1 UNK         0.1335 
     79 H79       -77.4786   31.9300  -72.3573 H         1 UNK         0.0680 
     80 H80       -78.1856   30.4911  -71.6724 H         1 UNK         0.0680 
     81 H81       -75.1090   33.1891  -70.0159 H         1 UNK         0.1032 
     82 H82       -75.5170   33.0880  -71.6933 H         1 UNK         0.1032 
     83 H83       -73.0830   33.0691  -71.3245 H         1 UNK         0.0461 
     84 H84       -72.7060   33.0879  -68.9381 H         1 UNK         0.3453 
     85 H85       -72.0848   31.6300  -68.2113 H         1 UNK         0.3453 
     86 H86       -74.3997   31.0659  -72.8476 H         1 UNK         0.2984 
     87 H87       -73.5408   30.1114  -74.5858 H         1 UNK         0.0554 
     88 H88       -72.9541   31.3776  -76.6461 H         1 UNK         0.0847 
     89 H89       -71.8350   32.3851  -75.7270 H         1 UNK         0.0847 
     90 H90       -73.5623   32.4648  -75.4107 H         1 UNK         0.0847 
     91 H91       -71.0368   29.9939  -75.8323 H         1 UNK         0.3141 
     92 H92       -70.2398   27.9826  -76.2056 H         1 UNK         0.0743 
     93 H93       -68.5818   28.7283  -74.4767 H         1 UNK         0.0784 
     94 H94       -68.2199   27.1090  -75.0500 H         1 UNK         0.0784 
     95 H95       -68.9867   27.3407  -73.4772 H         1 UNK         0.0784 
     96 H96       -70.1998   25.5704  -74.7570 H         1 UNK         0.3213 
     97 H97       -71.4492   23.7938  -76.2342 H         1 UNK         0.0855 
     98 H98       -71.2176   23.9351  -73.7498 H         1 UNK         0.0814 
     99 H99       -72.4374   22.7450  -74.1528 H         1 UNK         0.0814 
    100 H100      -72.9213   24.3373  -73.5828 H         1 UNK         0.0814 
    101 H101      -74.2318   24.7479  -76.0799 H         1 UNK         0.3105 
    102 H102      -75.2519   22.6942  -78.6142 H         1 UNK         0.0547 
    103 H103      -76.1640   21.9720  -75.7812 H         1 UNK         0.0837 
    104 H104      -75.5141   20.8371  -76.9565 H         1 UNK         0.0837 
    105 H105      -77.0380   21.6408  -77.2826 H         1 UNK         0.0837 
    106 H106      -76.7415   24.1885  -76.6210 H         1 UNK         0.3020 
    107 H107      -76.8106   26.5619  -76.6923 H         1 UNK         0.1245 
    108 H108      -76.3748   27.7361  -79.4876 H         1 UNK         0.0781 
    109 H109      -75.2533   27.9052  -78.1695 H         1 UNK         0.0781 
    110 H110      -76.2064   31.1905  -76.8697 H         1 UNK         0.0836 
    111 H111      -75.0006   29.9892  -77.2265 H         1 UNK         0.0836 
    112 H112      -78.5451   26.6375  -79.0116 H         1 UNK         0.3022 
    113 H113      -80.6624   26.0560  -78.8102 H         1 UNK         0.0747 
    114 H114      -81.6545   23.7961  -79.1556 H         1 UNK         0.0793 
    115 H115      -79.9336   23.7642  -79.5021 H         1 UNK         0.0793 
    116 H116      -80.5301   23.0980  -77.9893 H         1 UNK         0.0793 
    117 H117      -81.9828   24.6104  -76.6988 H         1 UNK         0.3047 
    118 H118      -82.8927   27.5588  -74.8383 H         1 UNK         0.0822 
    119 H119      -85.0328   26.3409  -75.0704 H         1 UNK         0.0807 
    120 H120      -84.3322   25.2333  -76.2463 H         1 UNK         0.0807 
    121 H121      -84.5493   26.9319  -76.6485 H         1 UNK         0.0807 
    122 H122      -81.6637   25.0122  -74.5410 H         1 UNK         0.2946 
    123 H123      -82.2819   24.8298  -71.1222 H         1 UNK         0.1144 
    124 H124      -84.1778   23.3729  -71.8274 H         1 UNK         0.0793 
    125 H125      -82.7571   22.4061  -71.4685 H         1 UNK         0.0793 
    126 H126      -83.2162   22.7143  -73.1436 H         1 UNK         0.0793 
    127 H127      -80.8103   23.2750  -73.1242 H         1 UNK         0.2896 
@<TRIPOS>BOND
     1    1    2 1    
     2    1   67 1    
     3    1   68 1    
     4    1   69 1    
     5    2    3 2    
     6    2    4 am   BACKBONE|DICT|INTERRES
     7    4    5 1    
     8    4   70 1    
     9    5    6 1    
    10    5   65 1    
    11    5   71 1    
    12    6    7 1    
    13    6   72 1    
    14    6   73 1    
    15    7    8 1    
    16    8    9 1    
    17    8   74 1    
    18    8   75 1    
    19    9   10 ar   
    20    9   14 ar   
    21   10   11 ar   
    22   10   76 1    
    23   11   12 ar   
    24   11   48 1    
    25   12   13 ar   
    26   12   77 1    
    27   13   14 ar   
    28   13   15 1    
    29   14   78 1    
    30   15   16 1    
    31   15   79 1    
    32   15   80 1    
    33   16   17 1    
    34   17   18 1    
    35   17   81 1    
    36   17   82 1    
    37   18   19 1    
    38   18   22 1    
    39   18   83 1    
    40   19   20 am   BACKBONE|DICT|INTERRES
    41   19   21 2    
    42   20   84 1    
    43   20   85 1    
    44   22   23 am   BACKBONE|DICT|INTERRES
    45   22   86 1    
    46   23   24 2    
    47   23   25 1    
    48   25   26 1    
    49   25   27 1    
    50   25   87 1    
    51   26   88 1    
    52   26   89 1    
    53   26   90 1    
    54   27   28 am   BACKBONE|DICT|INTERRES
    55   27   91 1    
    56   28   29 2    
    57   28   30 1    
    58   30   31 1    
    59   30   32 1    
    60   30   92 1    
    61   31   93 1    
    62   31   94 1    
    63   31   95 1    
    64   32   33 am   BACKBONE|DICT|INTERRES
    65   32   96 1    
    66   33   34 2    
    67   33   35 1    
    68   35   36 1    
    69   35   37 1    
    70   35   97 1    
    71   36   98 1    
    72   36   99 1    
    73   36  100 1    
    74   37   38 am   BACKBONE|DICT|INTERRES
    75   37  101 1    
    76   38   39 2    
    77   38   40 1    
    78   40   41 1    
    79   40   42 1    
    80   40  102 1    
    81   41  103 1    
    82   41  104 1    
    83   41  105 1    
    84   42   43 am   BACKBONE|DICT|INTERRES
    85   42  106 1    
    86   43   44 2    
    87   43   45 1    
    88   45   46 1    
    89   45   49 1    
    90   45  107 1    
    91   46   47 1    
    92   46  108 1    
    93   46  109 1    
    94   47   48 1    
    95   48  110 1    
    96   48  111 1    
    97   49   50 am   BACKBONE|DICT|INTERRES
    98   49  112 1    
    99   50   51 2    
   100   50   52 1    
   101   52   53 1    
   102   52   54 1    
   103   52  113 1    
   104   53  114 1    
   105   53  115 1    
   106   53  116 1    
   107   54   55 am   BACKBONE|DICT|INTERRES
   108   54  117 1    
   109   55   56 2    
   110   55   57 1    
   111   57   58 1    
   112   57   59 1    
   113   57  118 1    
   114   58  119 1    
   115   58  120 1    
   116   58  121 1    
   117   59   60 am   BACKBONE|DICT|INTERRES
   118   59  122 1    
   119   60   61 2    
   120   60   62 1    
   121   62   63 1    
   122   62   64 1    
   123   62  123 1    
   124   63  124 1    
   125   63  125 1    
   126   63  126 1    
   127   64   65 am   BACKBONE|DICT|INTERRES
   128   64  127 1    
   129   65   66 2    
@<TRIPOS>SUBSTRUCTURE
     1 UNK         1 GROUP             0       ****    0 ROOT    
