@<TRIPOS>MOLECULE
3R135
127   129    1
SMALL
USER_CHARGES


@<TRIPOS>ATOM
      1 CA        -81.8098   29.0680  -76.3299 C.3       0 UNK        -0.1998 
      2 C         -80.6871   28.1709  -75.8341 C.2       0 UNK         0.4909 
      3 O         -80.9411   27.0185  -75.4826 O.2       0 UNK        -0.5240 
      4 N         -79.4464   28.6816  -75.8278 N.am      1 UNK        -0.4739 
      5 CA        -78.2265   28.0142  -75.3383 C.3       1 UNK         0.0864 
      6 C6        -78.1729   27.9352  -73.7921 C.3       11 UNK        -0.0881 
      7 S7        -78.0942   29.6046  -73.0545 S.3       11 UNK        -0.2682 
      8 C8        -78.1485   29.2261  -71.2741 C.3       11 UNK         0.0289 
      9 C9        -77.0049   28.3142  -70.8571 C.ar      11 UNK        -0.0687 
     10 C10       -77.2660   27.0127  -70.4258 C.ar      11 UNK        -0.0823 
     11 C11       -76.2172   26.1512  -70.0901 C.ar      11 UNK        -0.0830 
     12 C12       -74.8980   26.6074  -70.1897 C.ar      11 UNK        -0.1021 
     13 C13       -74.6204   27.9157  -70.6041 C.ar      11 UNK        -0.0753 
     14 C14       -75.6849   28.7659  -70.9211 C.ar      11 UNK        -0.0933 
     15 C15       -73.1724   28.3999  -70.6648 C.3       11 UNK         0.0166 
     16 S16       -72.7396   29.2680  -72.2139 S.3       11 UNK        -0.2615 
     17 C17       -73.0969   31.0123  -71.7992 C.3       11 UNK        -0.0865 
     18 CA        -73.9759   31.7242  -72.8719 C.3       10 UNK         0.0862 
     19 C         -74.5324   33.0956  -72.3770 C.2       10 UNK         0.5551 
     20 N         -74.7033   34.0904  -73.2395 N.am      10 UNK        -0.7319 
     21 O         -74.8481   33.2541  -71.2002 O.2       10 UNK        -0.5018 
     22 N         -73.3499   31.7604  -74.2087 N.am      10 UNK        -0.4509 
     23 C         -72.2037   32.3747  -74.5396 C.2       10 UNK         0.4899 
     24 O         -71.5059   33.0002  -73.7398 O.2       10 UNK        -0.4839 
     25 CA        -71.7846   32.3111  -76.0254 C.3       9 UNK         0.0222 
     26 CB        -70.2618   32.4770  -76.2236 C.3       9 UNK        -0.1966 
     27 N         -72.2858   31.1266  -76.7393 N.am      9 UNK        -0.4218 
     28 C         -71.9809   29.8449  -76.4904 C.2       9 UNK         0.5020 
     29 O         -71.1820   29.4669  -75.6294 O.2       9 UNK        -0.5274 
     30 CA        -72.6918   28.8029  -77.3587 C.3       8 UNK         0.0270 
     31 CB        -71.8891   28.4967  -78.6351 C.3       8 UNK        -0.1976 
     32 N         -72.8399   27.5897  -76.5633 N.am      8 UNK        -0.4313 
     33 C         -73.8920   26.7689  -76.5928 C.2       8 UNK         0.5041 
     34 O         -74.8433   26.9017  -77.3662 O.2       8 UNK        -0.5577 
     35 CA        -73.8881   25.6386  -75.5536 C.3       7 UNK         0.0284 
     36 CB        -74.1869   26.1910  -74.1490 C.3       7 UNK        -0.1958 
     37 N         -74.8965   24.6317  -75.8721 N.am      7 UNK        -0.4454 
     38 C         -74.6823   23.5131  -76.5768 C.2       7 UNK         0.5089 
     39 O         -73.5953   23.2137  -77.0742 O.2       7 UNK        -0.5125 
     40 CA        -75.8911   22.5610  -76.7222 C.3       6 UNK         0.0408 
     41 CB        -75.4830   21.1085  -77.0502 C.3       6 UNK        -0.1791 
     42 N         -76.7888   22.6233  -75.5566 N.am      6 UNK        -0.4762 
     43 C         -76.4649   22.2983  -74.2941 C.2       6 UNK         0.5007 
     44 O         -75.4128   21.7355  -73.9876 O.2       6 UNK        -0.5032 
     45 CA        -77.4380   22.6911  -73.1689 C.3       5 UNK         0.0783 
     46 C46       -76.7354   23.6349  -72.1580 C.3       11 UNK        -0.0857 
     47 S47       -77.6993   23.8371  -70.6264 S.3       11 UNK        -0.2512 
     48 C48       -76.5061   24.7410  -69.5859 C.3       11 UNK         0.0225 
     49 N         -78.6807   23.2914  -73.6768 N.am      5 UNK        -0.4615 
     50 C         -79.9008   22.8306  -73.3713 C.2       4 UNK         0.5053 
     51 O         -80.1112   21.7578  -72.8039 O.2       4 UNK        -0.5105 
     52 CA        -81.0929   23.7340  -73.7171 C.3       4 UNK         0.0263 
     53 CB        -81.1449   24.9453  -72.7719 C.3       4 UNK        -0.1981 
     54 N         -81.0881   24.1908  -75.1056 N.am      4 UNK        -0.4224 
     55 C         -81.4021   23.4133  -76.1515 C.2       3 UNK         0.4895 
     56 O         -81.6694   22.2144  -76.0642 O.2       3 UNK        -0.5091 
     57 CA        -81.4411   24.0909  -77.5278 C.3       3 UNK         0.0250 
     58 CB        -82.7307   24.9114  -77.7004 C.3       3 UNK        -0.1996 
     59 N         -80.2776   24.9514  -77.7314 N.am      3 UNK        -0.4254 
     60 C         -79.0865   24.5125  -78.1581 C.2       2 UNK         0.5004 
     61 O         -78.8600   23.3430  -78.4659 O.2       2 UNK        -0.5226 
     62 CA        -77.9544   25.5472  -78.2702 C.3       2 UNK         0.0269 
     63 CB        -77.8313   26.0524  -79.7162 C.3       2 UNK        -0.1926 
     64 N         -78.1206   26.6911  -77.3759 N.am      2 UNK        -0.4687 
     65 C         -77.9835   26.6601  -76.0427 C.2       1 UNK         0.5165 
     66 O         -77.7163   25.6384  -75.3998 O.2       1 UNK        -0.5079 
     67 H67       -81.4469   30.0529  -76.6230 H         1 UNK         0.0900 
     68 H68       -82.2990   28.6146  -77.1915 H         1 UNK         0.0900 
     69 H69       -82.5546   29.1998  -75.5456 H         1 UNK         0.0900 
     70 H70       -79.3133   29.6347  -76.1363 H         1 UNK         0.2959 
     71 H71       -77.3881   28.6374  -75.6553 H         1 UNK         0.1079 
     72 H72       -77.2965   27.3763  -73.4615 H         1 UNK         0.0837 
     73 H73       -79.0428   27.4104  -73.3990 H         1 UNK         0.0837 
     74 H74       -78.0910   30.1581  -70.7102 H         1 UNK         0.0685 
     75 H75       -79.1145   28.7785  -71.0353 H         1 UNK         0.0685 
     76 H76       -78.2876   26.6642  -70.3595 H         1 UNK         0.1434 
     77 H77       -74.0836   25.9461  -69.9265 H         1 UNK         0.1329 
     78 H78       -75.4967   29.7790  -71.2385 H         1 UNK         0.1335 
     79 H79       -72.4955   27.5491  -70.5745 H         1 UNK         0.0680 
     80 H80       -72.9664   29.0373  -69.8042 H         1 UNK         0.0680 
     81 H81       -72.1508   31.5376  -71.6643 H         1 UNK         0.1032 
     82 H82       -73.5839   31.0457  -70.8237 H         1 UNK         0.1032 
     83 H83       -74.8705   31.1158  -73.0071 H         1 UNK         0.0461 
     84 H84       -74.4614   33.9726  -74.2099 H         1 UNK         0.3453 
     85 H85       -75.0741   34.9689  -72.9132 H         1 UNK         0.3453 
     86 H86       -73.8595   31.2843  -74.9375 H         1 UNK         0.2984 
     87 H87       -72.2649   33.1674  -76.5011 H         1 UNK         0.0554 
     88 H88       -69.9181   33.4371  -75.8366 H         1 UNK         0.0847 
     89 H89       -69.9914   32.4408  -77.2788 H         1 UNK         0.0847 
     90 H90       -69.6984   31.7003  -75.7056 H         1 UNK         0.0847 
     91 H91       -72.9479   31.3190  -77.4794 H         1 UNK         0.3141 
     92 H92       -73.6765   29.1897  -77.6312 H         1 UNK         0.0743 
     93 H93       -70.8936   28.1158  -78.4030 H         1 UNK         0.0784 
     94 H94       -72.3962   27.7540  -79.2514 H         1 UNK         0.0784 
     95 H95       -71.7634   29.3927  -79.2442 H         1 UNK         0.0784 
     96 H96       -72.1269   27.4785  -75.8517 H         1 UNK         0.3213 
     97 H97       -72.8982   25.1767  -75.5456 H         1 UNK         0.0855 
     98 H98       -75.1380   26.7220  -74.1152 H         1 UNK         0.0814 
     99 H99       -73.4142   26.8897  -73.8297 H         1 UNK         0.0814 
    100 H100      -74.2218   25.3946  -73.4054 H         1 UNK         0.0814 
    101 H101      -75.8453   24.8434  -75.5827 H         1 UNK         0.3105 
    102 H102      -76.4603   22.9212  -77.5755 H         1 UNK         0.0547 
    103 H103      -74.9617   21.0593  -78.0068 H         1 UNK         0.0837 
    104 H104      -74.8132   20.6897  -76.2990 H         1 UNK         0.0837 
    105 H105      -76.3548   20.4588  -77.1246 H         1 UNK         0.0837 
    106 H106      -77.6807   23.0730  -75.7109 H         1 UNK         0.3020 
    107 H107      -77.6538   21.7531  -72.6521 H         1 UNK         0.1245 
    108 H108      -76.5659   24.6180  -72.6022 H         1 UNK         0.0781 
    109 H109      -75.7531   23.2508  -71.8752 H         1 UNK         0.0781 
    110 H110      -75.5878   24.1563  -69.5113 H         1 UNK         0.0836 
    111 H111      -76.9081   24.8105  -68.5744 H         1 UNK         0.0836 
    112 H112      -78.5871   24.1833  -74.1508 H         1 UNK         0.3022 
    113 H113      -82.0047   23.1538  -73.5581 H         1 UNK         0.0747 
    114 H114      -82.0158   25.5697  -72.9724 H         1 UNK         0.0793 
    115 H115      -81.2047   24.6251  -71.7308 H         1 UNK         0.0793 
    116 H116      -80.2574   25.5691  -72.8677 H         1 UNK         0.0793 
    117 H117      -80.9253   25.1845  -75.2617 H         1 UNK         0.3047 
    118 H118      -81.4425   23.3061  -78.2879 H         1 UNK         0.0822 
    119 H119      -82.7876   25.3542  -78.6949 H         1 UNK         0.0807 
    120 H120      -82.8046   25.7180  -76.9703 H         1 UNK         0.0807 
    121 H121      -83.6116   24.2801  -77.5767 H         1 UNK         0.0807 
    122 H122      -80.3645   25.9163  -77.4428 H         1 UNK         0.2946 
    123 H123      -77.0175   25.0572  -78.0063 H         1 UNK         0.1144 
    124 H124      -77.6757   25.2227  -80.4074 H         1 UNK         0.0793 
    125 H125      -76.9814   26.7265  -79.8268 H         1 UNK         0.0793 
    126 H126      -78.7282   26.5826  -80.0387 H         1 UNK         0.0793 
    127 H127      -78.3472   27.5743  -77.8098 H         1 UNK         0.2896 
@<TRIPOS>BOND
     1    1    2 1    
     2    1   67 1    
     3    1   68 1    
     4    1   69 1    
     5    2    3 2    
     6    2    4 am   BACKBONE|DICT|INTERRES
     7    4    5 1    
     8    4   70 1    
     9    5    6 1    
    10    5   65 1    
    11    5   71 1    
    12    6    7 1    
    13    6   72 1    
    14    6   73 1    
    15    7    8 1    
    16    8    9 1    
    17    8   74 1    
    18    8   75 1    
    19    9   10 ar   
    20    9   14 ar   
    21   10   11 ar   
    22   10   76 1    
    23   11   12 ar   
    24   11   48 1    
    25   12   13 ar   
    26   12   77 1    
    27   13   14 ar   
    28   13   15 1    
    29   14   78 1    
    30   15   16 1    
    31   15   79 1    
    32   15   80 1    
    33   16   17 1    
    34   17   18 1    
    35   17   81 1    
    36   17   82 1    
    37   18   19 1    
    38   18   22 1    
    39   18   83 1    
    40   19   20 am   BACKBONE|DICT|INTERRES
    41   19   21 2    
    42   20   84 1    
    43   20   85 1    
    44   22   23 am   BACKBONE|DICT|INTERRES
    45   22   86 1    
    46   23   24 2    
    47   23   25 1    
    48   25   26 1    
    49   25   27 1    
    50   25   87 1    
    51   26   88 1    
    52   26   89 1    
    53   26   90 1    
    54   27   28 am   BACKBONE|DICT|INTERRES
    55   27   91 1    
    56   28   29 2    
    57   28   30 1    
    58   30   31 1    
    59   30   32 1    
    60   30   92 1    
    61   31   93 1    
    62   31   94 1    
    63   31   95 1    
    64   32   33 am   BACKBONE|DICT|INTERRES
    65   32   96 1    
    66   33   34 2    
    67   33   35 1    
    68   35   36 1    
    69   35   37 1    
    70   35   97 1    
    71   36   98 1    
    72   36   99 1    
    73   36  100 1    
    74   37   38 am   BACKBONE|DICT|INTERRES
    75   37  101 1    
    76   38   39 2    
    77   38   40 1    
    78   40   41 1    
    79   40   42 1    
    80   40  102 1    
    81   41  103 1    
    82   41  104 1    
    83   41  105 1    
    84   42   43 am   BACKBONE|DICT|INTERRES
    85   42  106 1    
    86   43   44 2    
    87   43   45 1    
    88   45   46 1    
    89   45   49 1    
    90   45  107 1    
    91   46   47 1    
    92   46  108 1    
    93   46  109 1    
    94   47   48 1    
    95   48  110 1    
    96   48  111 1    
    97   49   50 am   BACKBONE|DICT|INTERRES
    98   49  112 1    
    99   50   51 2    
   100   50   52 1    
   101   52   53 1    
   102   52   54 1    
   103   52  113 1    
   104   53  114 1    
   105   53  115 1    
   106   53  116 1    
   107   54   55 am   BACKBONE|DICT|INTERRES
   108   54  117 1    
   109   55   56 2    
   110   55   57 1    
   111   57   58 1    
   112   57   59 1    
   113   57  118 1    
   114   58  119 1    
   115   58  120 1    
   116   58  121 1    
   117   59   60 am   BACKBONE|DICT|INTERRES
   118   59  122 1    
   119   60   61 2    
   120   60   62 1    
   121   62   63 1    
   122   62   64 1    
   123   62  123 1    
   124   63  124 1    
   125   63  125 1    
   126   63  126 1    
   127   64   65 am   BACKBONE|DICT|INTERRES
   128   64  127 1    
   129   65   66 2    
@<TRIPOS>SUBSTRUCTURE
     1 UNK         1 GROUP             0       ****    0 ROOT    
