@<TRIPOS>MOLECULE
3R135
127   129    1
SMALL
USER_CHARGES


@<TRIPOS>ATOM
      1 CA        -78.2165   28.1673  -76.2699 C.3       0 UNK        -0.1998 
      2 C         -79.0225   27.5453  -75.1442 C.2       0 UNK         0.4909 
      3 O         -78.8041   26.3816  -74.8001 O.2       0 UNK        -0.5240 
      4 N         -79.9605   28.3137  -74.5767 N.am      1 UNK        -0.4739 
      5 CA        -80.9169   27.8506  -73.5688 C.3       1 UNK         0.0864 
      6 C6        -81.6805   29.0128  -72.8881 C.3       11 UNK        -0.0881 
      7 S7        -80.5928   30.3105  -72.2024 S.3       11 UNK        -0.2682 
      8 C8        -80.1979   29.6671  -70.5454 C.3       11 UNK         0.0289 
      9 C9        -78.7783   29.1212  -70.4875 C.ar      11 UNK        -0.0687 
     10 C10       -78.5315   27.7558  -70.6564 C.ar      11 UNK        -0.0823 
     11 C11       -77.2289   27.2510  -70.6011 C.ar      11 UNK        -0.0830 
     12 C12       -76.1722   28.1281  -70.3239 C.ar      11 UNK        -0.1021 
     13 C13       -76.4021   29.4968  -70.1570 C.ar      11 UNK        -0.0753 
     14 C14       -77.7079   29.9873  -70.2459 C.ar      11 UNK        -0.0933 
     15 C15       -75.2487   30.4428  -69.8434 C.3       11 UNK         0.0166 
     16 S16       -73.8912   30.3534  -71.0570 S.3       11 UNK        -0.2615 
     17 C17       -74.6778   30.9997  -72.5752 C.3       11 UNK        -0.0865 
     18 CA        -74.5746   30.0139  -73.7776 C.3       10 UNK         0.0862 
     19 C         -75.3282   30.5164  -75.0455 C.2       10 UNK         0.5551 
     20 N         -75.1136   29.8942  -76.1977 N.am      10 UNK        -0.7319 
     21 O         -76.1088   31.4641  -74.9940 O.2       10 UNK        -0.5018 
     22 N         -73.1879   29.5923  -74.0587 N.am      10 UNK        -0.4509 
     23 C         -72.1959   30.3921  -74.4701 C.2       10 UNK         0.4899 
     24 O         -72.3335   31.5939  -74.7014 O.2       10 UNK        -0.4839 
     25 CA        -70.7991   29.7712  -74.6457 C.3       9 UNK         0.0222 
     26 CB        -70.0615   29.6863  -73.2947 C.3       9 UNK        -0.1966 
     27 N         -70.7654   28.4905  -75.3641 N.am      9 UNK        -0.4218 
     28 C         -71.2128   27.2861  -74.9873 C.2       9 UNK         0.5020 
     29 O         -71.8176   27.0739  -73.9344 O.2       9 UNK        -0.5274 
     30 CA        -70.9292   26.1308  -75.9694 C.3       8 UNK         0.0270 
     31 CB        -71.2856   24.7533  -75.3808 C.3       8 UNK        -0.1976 
     32 N         -71.6380   26.2948  -77.2392 N.am      8 UNK        -0.4313 
     33 C         -71.3695   27.1814  -78.2047 C.2       8 UNK         0.5041 
     34 O         -70.4218   27.9676  -78.1516 O.2       8 UNK        -0.5577 
     35 CA        -72.3242   27.2350  -79.4163 C.3       7 UNK         0.0284 
     36 CB        -71.8456   26.2980  -80.5427 C.3       7 UNK        -0.1958 
     37 N         -73.7433   27.0156  -79.0846 N.am      7 UNK        -0.4454 
     38 C         -74.3307   25.9013  -78.6275 C.2       7 UNK         0.5089 
     39 O         -73.7538   24.8203  -78.4909 O.2       7 UNK        -0.5125 
     40 CA        -75.7882   26.0394  -78.1586 C.3       6 UNK         0.0408 
     41 CB        -76.7442   25.3116  -79.1148 C.3       6 UNK        -0.1791 
     42 N         -75.9468   25.5137  -76.7981 N.am      6 UNK        -0.4762 
     43 C         -75.3134   26.0055  -75.7188 C.2       6 UNK         0.5007 
     44 O         -74.6170   27.0219  -75.7635 O.2       6 UNK        -0.5032 
     45 CA        -75.4695   25.2558  -74.3806 C.3       5 UNK         0.0783 
     46 C46       -75.4645   26.2166  -73.1672 C.3       11 UNK        -0.0857 
     47 S47       -75.3900   25.3309  -71.5725 S.3       11 UNK        -0.2512 
     48 C48       -77.0031   25.7554  -70.8294 C.3       11 UNK         0.0225 
     49 N         -76.6533   24.3910  -74.3947 N.am      5 UNK        -0.4615 
     50 C         -76.6117   23.0573  -74.2898 C.2       4 UNK         0.5053 
     51 O         -75.5685   22.4095  -74.1954 O.2       4 UNK        -0.5105 
     52 CA        -77.9493   22.2973  -74.2830 C.3       4 UNK         0.0263 
     53 CB        -78.4081   22.0496  -72.8365 C.3       4 UNK        -0.1981 
     54 N         -79.0434   22.9320  -75.0209 N.am      4 UNK        -0.4224 
     55 C         -79.0464   23.2766  -76.3143 C.2       3 UNK         0.4895 
     56 O         -78.0572   23.1809  -77.0409 O.2       3 UNK        -0.5091 
     57 CA        -80.3589   23.8235  -76.9165 C.3       3 UNK         0.0250 
     58 CB        -81.0046   22.7825  -77.8514 C.3       3 UNK        -0.1996 
     59 N         -81.3451   24.3469  -75.9552 N.am      3 UNK        -0.4254 
     60 C         -82.0211   23.7133  -74.9842 C.2       2 UNK         0.5004 
     61 O         -81.9008   22.5116  -74.7443 O.2       2 UNK        -0.5226 
     62 CA        -82.9153   24.5920  -74.0824 C.3       2 UNK         0.0269 
     63 CB        -83.5406   23.8031  -72.9161 C.3       2 UNK        -0.1926 
     64 N         -82.1610   25.7267  -73.5364 N.am      2 UNK        -0.4687 
     65 C         -81.8984   26.8525  -74.2114 C.2       1 UNK         0.5165 
     66 O         -82.3668   27.0921  -75.3278 O.2       1 UNK        -0.5079 
     67 H67       -78.5238   29.1919  -76.4786 H         1 UNK         0.0900 
     68 H68       -78.3340   27.5820  -77.1809 H         1 UNK         0.0900 
     69 H69       -77.1641   28.1793  -76.0011 H         1 UNK         0.0900 
     70 H70       -80.0949   29.2617  -74.8972 H         1 UNK         0.2959 
     71 H71       -80.3477   27.3186  -72.8079 H         1 UNK         0.1079 
     72 H72       -82.3428   29.4986  -73.6078 H         1 UNK         0.0837 
     73 H73       -82.3314   28.6354  -72.0971 H         1 UNK         0.0837 
     74 H74       -80.3054   30.4779  -69.8233 H         1 UNK         0.0685 
     75 H75       -80.9160   28.9028  -70.2453 H         1 UNK         0.0685 
     76 H76       -79.3568   27.0800  -70.8262 H         1 UNK         0.1434 
     77 H77       -75.1609   27.7540  -70.2476 H         1 UNK         0.1329 
     78 H78       -77.8974   31.0438  -70.1130 H         1 UNK         0.1335 
     79 H79       -75.5950   31.4756  -69.7793 H         1 UNK         0.0680 
     80 H80       -74.8518   30.1914  -68.8590 H         1 UNK         0.0680 
     81 H81       -74.2159   31.9567  -72.8220 H         1 UNK         0.1032 
     82 H82       -75.7256   31.2225  -72.3658 H         1 UNK         0.1032 
     83 H83       -75.1079   29.1111  -73.4833 H         1 UNK         0.0461 
     84 H84       -74.5675   29.0412  -76.2047 H         1 UNK         0.3453 
     85 H85       -75.5781   30.2166  -77.0303 H         1 UNK         0.3453 
     86 H86       -72.9700   28.6101  -73.9143 H         1 UNK         0.2984 
     87 H87       -70.2336   30.4599  -75.2755 H         1 UNK         0.0554 
     88 H88       -69.0416   29.3231  -73.4199 H         1 UNK         0.0847 
     89 H89       -70.5704   29.0256  -72.5920 H         1 UNK         0.0847 
     90 H90       -70.0010   30.6685  -72.8240 H         1 UNK         0.0847 
     91 H91       -70.3798   28.5338  -76.3056 H         1 UNK         0.3141 
     92 H92       -69.8564   26.1363  -76.1729 H         1 UNK         0.0743 
     93 H93       -72.3542   24.6630  -75.1874 H         1 UNK         0.0784 
     94 H94       -70.9988   23.9471  -76.0562 H         1 UNK         0.0784 
     95 H95       -70.7665   24.5844  -74.4363 H         1 UNK         0.0784 
     96 H96       -72.4349   25.6849  -77.3977 H         1 UNK         0.3213 
     97 H97       -72.2705   28.2552  -79.8003 H         1 UNK         0.0855 
     98 H98       -70.8338   26.5575  -80.8571 H         1 UNK         0.0814 
     99 H99       -72.4868   26.3731  -81.4209 H         1 UNK         0.0814 
    100 H100      -71.8257   25.2539  -80.2294 H         1 UNK         0.0814 
    101 H101      -74.3120   27.8508  -79.1193 H         1 UNK         0.3105 
    102 H102      -76.0584   27.0969  -78.1430 H         1 UNK         0.0547 
    103 H103      -76.6560   25.7024  -80.1292 H         1 UNK         0.0837 
    104 H104      -76.5329   24.2422  -79.1574 H         1 UNK         0.0837 
    105 H105      -77.7828   25.4349  -78.8084 H         1 UNK         0.0837 
    106 H106      -76.4958   24.6668  -76.6998 H         1 UNK         0.3020 
    107 H107      -74.5659   24.6485  -74.3034 H         1 UNK         0.1245 
    108 H108      -76.3334   26.8761  -73.1993 H         1 UNK         0.0781 
    109 H109      -74.5852   26.8620  -73.1944 H         1 UNK         0.0781 
    110 H110      -77.0929   25.2396  -69.8728 H         1 UNK         0.0836 
    111 H111      -77.7855   25.3527  -71.4750 H         1 UNK         0.0836 
    112 H112      -77.5461   24.8670  -74.4981 H         1 UNK         0.3022 
    113 H113      -77.7690   21.3293  -74.7546 H         1 UNK         0.0747 
    114 H114      -79.2933   21.4139  -72.8031 H         1 UNK         0.0793 
    115 H115      -77.6294   21.5495  -72.2585 H         1 UNK         0.0793 
    116 H116      -78.6448   22.9834  -72.3250 H         1 UNK         0.0793 
    117 H117      -79.9363   22.9809  -74.5456 H         1 UNK         0.3047 
    118 H118      -80.0684   24.6797  -77.5273 H         1 UNK         0.0822 
    119 H119      -81.8841   23.1888  -78.3507 H         1 UNK         0.0807 
    120 H120      -81.3087   21.8849  -77.3121 H         1 UNK         0.0807 
    121 H121      -80.3062   22.4709  -78.6294 H         1 UNK         0.0807 
    122 H122      -81.5051   25.3471  -76.0176 H         1 UNK         0.2946 
    123 H123      -83.7315   24.9636  -74.7068 H         1 UNK         0.1144 
    124 H124      -84.1437   22.9722  -73.2849 H         1 UNK         0.0793 
    125 H125      -84.1967   24.4347  -72.3169 H         1 UNK         0.0793 
    126 H126      -82.7799   23.3859  -72.2549 H         1 UNK         0.0793 
    127 H127      -81.7272   25.5806  -72.6360 H         1 UNK         0.2896 
@<TRIPOS>BOND
     1    1    2 1    
     2    1   67 1    
     3    1   68 1    
     4    1   69 1    
     5    2    3 2    
     6    2    4 am   BACKBONE|DICT|INTERRES
     7    4    5 1    
     8    4   70 1    
     9    5    6 1    
    10    5   65 1    
    11    5   71 1    
    12    6    7 1    
    13    6   72 1    
    14    6   73 1    
    15    7    8 1    
    16    8    9 1    
    17    8   74 1    
    18    8   75 1    
    19    9   10 ar   
    20    9   14 ar   
    21   10   11 ar   
    22   10   76 1    
    23   11   12 ar   
    24   11   48 1    
    25   12   13 ar   
    26   12   77 1    
    27   13   14 ar   
    28   13   15 1    
    29   14   78 1    
    30   15   16 1    
    31   15   79 1    
    32   15   80 1    
    33   16   17 1    
    34   17   18 1    
    35   17   81 1    
    36   17   82 1    
    37   18   19 1    
    38   18   22 1    
    39   18   83 1    
    40   19   20 am   BACKBONE|DICT|INTERRES
    41   19   21 2    
    42   20   84 1    
    43   20   85 1    
    44   22   23 am   BACKBONE|DICT|INTERRES
    45   22   86 1    
    46   23   24 2    
    47   23   25 1    
    48   25   26 1    
    49   25   27 1    
    50   25   87 1    
    51   26   88 1    
    52   26   89 1    
    53   26   90 1    
    54   27   28 am   BACKBONE|DICT|INTERRES
    55   27   91 1    
    56   28   29 2    
    57   28   30 1    
    58   30   31 1    
    59   30   32 1    
    60   30   92 1    
    61   31   93 1    
    62   31   94 1    
    63   31   95 1    
    64   32   33 am   BACKBONE|DICT|INTERRES
    65   32   96 1    
    66   33   34 2    
    67   33   35 1    
    68   35   36 1    
    69   35   37 1    
    70   35   97 1    
    71   36   98 1    
    72   36   99 1    
    73   36  100 1    
    74   37   38 am   BACKBONE|DICT|INTERRES
    75   37  101 1    
    76   38   39 2    
    77   38   40 1    
    78   40   41 1    
    79   40   42 1    
    80   40  102 1    
    81   41  103 1    
    82   41  104 1    
    83   41  105 1    
    84   42   43 am   BACKBONE|DICT|INTERRES
    85   42  106 1    
    86   43   44 2    
    87   43   45 1    
    88   45   46 1    
    89   45   49 1    
    90   45  107 1    
    91   46   47 1    
    92   46  108 1    
    93   46  109 1    
    94   47   48 1    
    95   48  110 1    
    96   48  111 1    
    97   49   50 am   BACKBONE|DICT|INTERRES
    98   49  112 1    
    99   50   51 2    
   100   50   52 1    
   101   52   53 1    
   102   52   54 1    
   103   52  113 1    
   104   53  114 1    
   105   53  115 1    
   106   53  116 1    
   107   54   55 am   BACKBONE|DICT|INTERRES
   108   54  117 1    
   109   55   56 2    
   110   55   57 1    
   111   57   58 1    
   112   57   59 1    
   113   57  118 1    
   114   58  119 1    
   115   58  120 1    
   116   58  121 1    
   117   59   60 am   BACKBONE|DICT|INTERRES
   118   59  122 1    
   119   60   61 2    
   120   60   62 1    
   121   62   63 1    
   122   62   64 1    
   123   62  123 1    
   124   63  124 1    
   125   63  125 1    
   126   63  126 1    
   127   64   65 am   BACKBONE|DICT|INTERRES
   128   64  127 1    
   129   65   66 2    
@<TRIPOS>SUBSTRUCTURE
     1 UNK         1 GROUP             0       ****    0 ROOT    
