@<TRIPOS>MOLECULE
3R135
127   129    1
SMALL
USER_CHARGES


@<TRIPOS>ATOM
      1 CA        -78.2382   23.5682  -68.6656 C.3       0 UNK        -0.1998 
      2 C         -79.2845   23.5971  -69.7694 C.2       0 UNK         0.4909 
      3 O         -80.2233   22.8011  -69.7457 O.2       0 UNK        -0.5240 
      4 N         -79.1239   24.5037  -70.7423 N.am      1 UNK        -0.4739 
      5 CA        -80.0440   24.6928  -71.8760 C.3       1 UNK         0.0864 
      6 C6        -80.0513   26.1584  -72.3820 C.3       11 UNK        -0.0881 
      7 S7        -80.5707   27.3189  -71.0745 S.3       11 UNK        -0.2682 
      8 C8        -78.9890   28.1144  -70.6218 C.3       11 UNK         0.0289 
      9 C9        -78.4864   29.1521  -71.6248 C.ar      11 UNK        -0.0687 
     10 C10       -79.3732   29.9635  -72.3432 C.ar      11 UNK        -0.0823 
     11 C11       -78.8966   30.9405  -73.2200 C.ar      11 UNK        -0.0830 
     12 C12       -77.5206   31.1349  -73.3511 C.ar      11 UNK        -0.1021 
     13 C13       -76.6210   30.3257  -72.6529 C.ar      11 UNK        -0.0753 
     14 C14       -77.1087   29.3351  -71.7943 C.ar      11 UNK        -0.0933 
     15 C15       -75.1255   30.5441  -72.8212 C.3       11 UNK         0.0166 
     16 S16       -74.5845   30.1508  -74.5121 S.3       11 UNK        -0.2615 
     17 C17       -72.9028   30.8590  -74.5017 C.3       11 UNK        -0.0865 
     18 CA        -71.8552   29.9289  -75.1759 C.3       10 UNK         0.0862 
     19 C         -70.4677   30.6171  -75.3620 C.2       10 UNK         0.5551 
     20 N         -69.3606   29.8846  -75.3404 N.am      10 UNK        -0.7319 
     21 O         -70.3900   31.8273  -75.5608 O.2       10 UNK        -0.5018 
     22 N         -71.8024   28.5811  -74.5775 N.am      10 UNK        -0.4509 
     23 C         -71.4254   28.2901  -73.3238 C.2       10 UNK         0.4899 
     24 O         -71.0749   29.1354  -72.4983 O.2       10 UNK        -0.4839 
     25 CA        -71.4203   26.7963  -72.9424 C.3       9 UNK         0.0222 
     26 CB        -71.1184   26.5531  -71.4478 C.3       9 UNK        -0.1966 
     27 N         -72.6449   26.0983  -73.3478 N.am      9 UNK        -0.4218 
     28 C         -73.9043   26.3397  -72.9570 C.2       9 UNK         0.5020 
     29 O         -74.2135   27.2016  -72.1332 O.2       9 UNK        -0.5274 
     30 CA        -74.9985   25.4476  -73.5856 C.3       8 UNK         0.0270 
     31 CB        -76.4159   25.8765  -73.1725 C.3       8 UNK        -0.1976 
     32 N         -74.9369   25.3956  -75.0501 N.am      8 UNK        -0.4313 
     33 C         -74.0194   24.7352  -75.7716 C.2       8 UNK         0.5041 
     34 O         -73.0970   24.0898  -75.2693 O.2       8 UNK        -0.5577 
     35 CA        -74.0943   24.8554  -77.3021 C.3       7 UNK         0.0284 
     36 CB        -74.9180   23.7139  -77.9034 C.3       7 UNK        -0.1958 
     37 N         -74.6475   26.1329  -77.7497 N.am      7 UNK        -0.4454 
     38 C         -73.9937   27.2984  -77.6659 C.2       7 UNK         0.5089 
     39 O         -72.8621   27.4184  -77.1957 O.2       7 UNK        -0.5125 
     40 CA        -74.7464   28.5307  -78.1701 C.3       6 UNK         0.0408 
     41 CB        -74.8790   28.5203  -79.7052 C.3       6 UNK        -0.1791 
     42 N         -76.0538   28.5996  -77.5222 N.am      6 UNK        -0.4762 
     43 C         -76.8130   29.6916  -77.4165 C.2       6 UNK         0.5007 
     44 O         -76.5441   30.7533  -77.9829 O.2       6 UNK        -0.5032 
     45 CA        -78.0708   29.5880  -76.5208 C.3       5 UNK         0.0783 
     46 C46       -78.9055   30.9009  -76.5583 C.3       11 UNK        -0.0857 
     47 S47       -80.4109   30.8633  -75.5222 S.3       11 UNK        -0.2512 
     48 C48       -79.8718   31.7701  -74.0381 C.3       11 UNK         0.0225 
     49 N         -78.9130   28.4183  -76.7983 N.am      5 UNK        -0.4615 
     50 C         -78.6674   27.1279  -76.5369 C.2       4 UNK         0.5053 
     51 O         -77.5741   26.6927  -76.1614 O.2       4 UNK        -0.5105 
     52 CA        -79.8956   26.2012  -76.6570 C.3       4 UNK         0.0263 
     53 CB        -80.8279   26.5742  -77.8343 C.3       4 UNK        -0.1981 
     54 N         -79.5907   24.7678  -76.6853 N.am      4 UNK        -0.4224 
     55 C         -78.9505   24.0823  -77.6450 C.2       3 UNK         0.4895 
     56 O         -78.4046   24.6029  -78.6198 O.2       3 UNK        -0.5091 
     57 CA        -79.0068   22.5418  -77.5204 C.3       3 UNK         0.0250 
     58 CB        -77.9622   21.7825  -78.3674 C.3       3 UNK        -0.1996 
     59 N         -79.0226   22.0548  -76.1357 N.am      3 UNK        -0.4254 
     60 C         -78.0822   22.2512  -75.2002 C.2       2 UNK         0.5004 
     61 O         -77.0164   22.8349  -75.3915 O.2       2 UNK        -0.5226 
     62 CA        -78.4150   21.7339  -73.7918 C.3       2 UNK         0.0269 
     63 CB        -77.2308   20.9564  -73.1909 C.3       2 UNK        -0.1926 
     64 N         -78.7845   22.8157  -72.8758 N.am      2 UNK        -0.4687 
     65 C         -79.7914   23.6911  -73.0271 C.2       1 UNK         0.5165 
     66 O         -80.5215   23.7221  -74.0200 O.2       1 UNK        -0.5079 
     67 H67       -77.4644   24.3208  -68.8158 H         1 UNK         0.0900 
     68 H68       -78.7078   23.7539  -67.7000 H         1 UNK         0.0900 
     69 H69       -77.7581   22.5906  -68.6286 H         1 UNK         0.0900 
     70 H70       -78.3369   25.1339  -70.7068 H         1 UNK         0.2959 
     71 H71       -81.0561   24.4738  -71.5270 H         1 UNK         0.1079 
     72 H72       -80.7553   26.2739  -73.2080 H         1 UNK         0.0837 
     73 H73       -79.0790   26.4532  -72.7756 H         1 UNK         0.0837 
     74 H74       -78.2362   27.3413  -70.4637 H         1 UNK         0.0685 
     75 H75       -79.1219   28.6127  -69.6609 H         1 UNK         0.0685 
     76 H76       -80.4406   29.8361  -72.2291 H         1 UNK         0.1434 
     77 H77       -77.1435   31.8969  -74.0195 H         1 UNK         0.1329 
     78 H78       -76.4111   28.7147  -71.2475 H         1 UNK         0.1335 
     79 H79       -74.5566   29.9375  -72.1146 H         1 UNK         0.0680 
     80 H80       -74.8943   31.5866  -72.5975 H         1 UNK         0.0680 
     81 H81       -72.9561   31.8169  -75.0222 H         1 UNK         0.1032 
     82 H82       -72.5991   31.0907  -73.4798 H         1 UNK         0.1032 
     83 H83       -72.1996   29.7702  -76.1974 H         1 UNK         0.0461 
     84 H84       -69.4119   28.8893  -75.1949 H         1 UNK         0.3453 
     85 H85       -68.4674   30.3326  -75.4716 H         1 UNK         0.3453 
     86 H86       -72.0782   27.8332  -75.2023 H         1 UNK         0.2984 
     87 H87       -70.6115   26.3412  -73.5156 H         1 UNK         0.0554 
     88 H88       -71.8641   27.0189  -70.8026 H         1 UNK         0.0847 
     89 H89       -70.1479   26.9679  -71.1727 H         1 UNK         0.0847 
     90 H90       -71.0919   25.4886  -71.2156 H         1 UNK         0.0847 
     91 H91       -72.5312   25.3530  -74.0338 H         1 UNK         0.3141 
     92 H92       -74.8393   24.4357  -73.2072 H         1 UNK         0.0743 
     93 H93       -76.5370   25.8464  -72.0895 H         1 UNK         0.0784 
     94 H94       -76.6374   26.8931  -73.5013 H         1 UNK         0.0784 
     95 H95       -77.1636   25.2135  -73.6073 H         1 UNK         0.0784 
     96 H96       -75.6842   25.8726  -75.5417 H         1 UNK         0.3213 
     97 H97       -73.0742   24.7715  -77.6841 H         1 UNK         0.0855 
     98 H98       -75.9654   23.8136  -77.6248 H         1 UNK         0.0814 
     99 H99       -74.5711   22.7435  -77.5455 H         1 UNK         0.0814 
    100 H100      -74.8580   23.7046  -78.9917 H         1 UNK         0.0814 
    101 H101      -75.5756   26.1136  -78.1493 H         1 UNK         0.3105 
    102 H102      -74.1683   29.4092  -77.8750 H         1 UNK         0.0547 
    103 H103      -73.9040   28.4025  -80.1797 H         1 UNK         0.0837 
    104 H104      -75.5139   27.7050  -80.0534 H         1 UNK         0.0837 
    105 H105      -75.3040   29.4533  -80.0749 H         1 UNK         0.0837 
    106 H106      -76.3622   27.7761  -77.0088 H         1 UNK         0.3020 
    107 H107      -77.6930   29.4622  -75.5045 H         1 UNK         0.1245 
    108 H108      -79.2248   31.1115  -77.5809 H         1 UNK         0.0781 
    109 H109      -78.2936   31.7535  -76.2585 H         1 UNK         0.0781 
    110 H110      -80.7471   32.0103  -73.4327 H         1 UNK         0.0836 
    111 H111      -79.4296   32.7257  -74.3243 H         1 UNK         0.0836 
    112 H112      -79.8429   28.6514  -77.1133 H         1 UNK         0.3022 
    113 H113      -80.4616   26.3491  -75.7363 H         1 UNK         0.0747 
    114 H114      -81.6449   25.8590  -77.9319 H         1 UNK         0.0793 
    115 H115      -81.2884   27.5524  -77.6935 H         1 UNK         0.0793 
    116 H116      -80.2916   26.5946  -78.7840 H         1 UNK         0.0793 
    117 H117      -79.9441   24.2430  -75.8907 H         1 UNK         0.3047 
    118 H118      -79.9826   22.2799  -77.9325 H         1 UNK         0.0822 
    119 H119      -76.9686   21.8155  -77.9261 H         1 UNK         0.0807 
    120 H120      -77.8907   22.1846  -79.3786 H         1 UNK         0.0807 
    121 H121      -78.2350   20.7316  -78.4632 H         1 UNK         0.0807 
    122 H122      -79.8777   21.5950  -75.8535 H         1 UNK         0.2946 
    123 H123      -79.2647   21.0511  -73.8599 H         1 UNK         0.1144 
    124 H124      -76.9256   20.1416  -73.8489 H         1 UNK         0.0793 
    125 H125      -77.4914   20.5146  -72.2289 H         1 UNK         0.0793 
    126 H126      -76.3603   21.5972  -73.0420 H         1 UNK         0.0793 
    127 H127      -78.2404   22.8867  -72.0293 H         1 UNK         0.2896 
@<TRIPOS>BOND
     1    1    2 1    
     2    1   67 1    
     3    1   68 1    
     4    1   69 1    
     5    2    3 2    
     6    2    4 am   BACKBONE|DICT|INTERRES
     7    4    5 1    
     8    4   70 1    
     9    5    6 1    
    10    5   65 1    
    11    5   71 1    
    12    6    7 1    
    13    6   72 1    
    14    6   73 1    
    15    7    8 1    
    16    8    9 1    
    17    8   74 1    
    18    8   75 1    
    19    9   10 ar   
    20    9   14 ar   
    21   10   11 ar   
    22   10   76 1    
    23   11   12 ar   
    24   11   48 1    
    25   12   13 ar   
    26   12   77 1    
    27   13   14 ar   
    28   13   15 1    
    29   14   78 1    
    30   15   16 1    
    31   15   79 1    
    32   15   80 1    
    33   16   17 1    
    34   17   18 1    
    35   17   81 1    
    36   17   82 1    
    37   18   19 1    
    38   18   22 1    
    39   18   83 1    
    40   19   20 am   BACKBONE|DICT|INTERRES
    41   19   21 2    
    42   20   84 1    
    43   20   85 1    
    44   22   23 am   BACKBONE|DICT|INTERRES
    45   22   86 1    
    46   23   24 2    
    47   23   25 1    
    48   25   26 1    
    49   25   27 1    
    50   25   87 1    
    51   26   88 1    
    52   26   89 1    
    53   26   90 1    
    54   27   28 am   BACKBONE|DICT|INTERRES
    55   27   91 1    
    56   28   29 2    
    57   28   30 1    
    58   30   31 1    
    59   30   32 1    
    60   30   92 1    
    61   31   93 1    
    62   31   94 1    
    63   31   95 1    
    64   32   33 am   BACKBONE|DICT|INTERRES
    65   32   96 1    
    66   33   34 2    
    67   33   35 1    
    68   35   36 1    
    69   35   37 1    
    70   35   97 1    
    71   36   98 1    
    72   36   99 1    
    73   36  100 1    
    74   37   38 am   BACKBONE|DICT|INTERRES
    75   37  101 1    
    76   38   39 2    
    77   38   40 1    
    78   40   41 1    
    79   40   42 1    
    80   40  102 1    
    81   41  103 1    
    82   41  104 1    
    83   41  105 1    
    84   42   43 am   BACKBONE|DICT|INTERRES
    85   42  106 1    
    86   43   44 2    
    87   43   45 1    
    88   45   46 1    
    89   45   49 1    
    90   45  107 1    
    91   46   47 1    
    92   46  108 1    
    93   46  109 1    
    94   47   48 1    
    95   48  110 1    
    96   48  111 1    
    97   49   50 am   BACKBONE|DICT|INTERRES
    98   49  112 1    
    99   50   51 2    
   100   50   52 1    
   101   52   53 1    
   102   52   54 1    
   103   52  113 1    
   104   53  114 1    
   105   53  115 1    
   106   53  116 1    
   107   54   55 am   BACKBONE|DICT|INTERRES
   108   54  117 1    
   109   55   56 2    
   110   55   57 1    
   111   57   58 1    
   112   57   59 1    
   113   57  118 1    
   114   58  119 1    
   115   58  120 1    
   116   58  121 1    
   117   59   60 am   BACKBONE|DICT|INTERRES
   118   59  122 1    
   119   60   61 2    
   120   60   62 1    
   121   62   63 1    
   122   62   64 1    
   123   62  123 1    
   124   63  124 1    
   125   63  125 1    
   126   63  126 1    
   127   64   65 am   BACKBONE|DICT|INTERRES
   128   64  127 1    
   129   65   66 2    
@<TRIPOS>SUBSTRUCTURE
     1 UNK         1 GROUP             0       ****    0 ROOT    
