@<TRIPOS>MOLECULE
3R135
127   129    1
SMALL
USER_CHARGES


@<TRIPOS>ATOM
      1 CA        -83.3471   27.5457  -75.5356 C.3       0 UNK        -0.1998 
      2 C         -81.8478   27.3609  -75.3677 C.2       0 UNK         0.4909 
      3 O         -81.3176   26.3162  -75.7447 O.2       0 UNK        -0.5240 
      4 N         -81.1555   28.3765  -74.8312 N.am      1 UNK        -0.4739 
      5 CA        -79.7220   28.3907  -74.4810 C.3       1 UNK         0.0864 
      6 C6        -79.3851   27.5374  -73.2296 C.3       11 UNK        -0.0881 
      7 S7        -80.4122   27.9410  -71.7741 S.3       11 UNK        -0.2682 
      8 C8        -79.3757   29.1708  -70.9018 C.3       11 UNK         0.0289 
      9 C9        -77.9961   28.6799  -70.4570 C.ar      11 UNK        -0.0687 
     10 C10       -77.7190   27.3258  -70.2368 C.ar      11 UNK        -0.0823 
     11 C11       -76.4364   26.9015  -69.8709 C.ar      11 UNK        -0.0830 
     12 C12       -75.4330   27.8565  -69.6766 C.ar      11 UNK        -0.1021 
     13 C13       -75.7042   29.2180  -69.8430 C.ar      11 UNK        -0.0753 
     14 C14       -76.9836   29.6187  -70.2413 C.ar      11 UNK        -0.0933 
     15 C15       -74.6411   30.2621  -69.5241 C.3       11 UNK         0.0166 
     16 S16       -74.2935   31.3697  -70.9255 S.3       11 UNK        -0.2615 
     17 C17       -72.9923   30.4530  -71.8156 C.3       11 UNK        -0.0865 
     18 CA        -72.8952   30.9182  -73.2934 C.3       10 UNK         0.0862 
     19 C         -71.5531   30.5041  -73.9667 C.2       10 UNK         0.5551 
     20 N         -71.5449   30.0273  -75.2041 N.am      10 UNK        -0.7319 
     21 O         -70.4925   30.6301  -73.3597 O.2       10 UNK        -0.5018 
     22 N         -74.0911   30.5162  -74.0508 N.am      10 UNK        -0.4509 
     23 C         -74.6659   31.2293  -75.0243 C.2       10 UNK         0.4899 
     24 O         -74.2882   32.3472  -75.3792 O.2       10 UNK        -0.4839 
     25 CA        -75.8590   30.5483  -75.7202 C.3       9 UNK         0.0222 
     26 CB        -76.4280   31.3706  -76.8959 C.3       9 UNK        -0.1966 
     27 N         -75.5603   29.1746  -76.1483 N.am      9 UNK        -0.4218 
     28 C         -74.5950   28.7735  -76.9877 C.2       9 UNK         0.5020 
     29 O         -73.7535   29.5267  -77.4802 O.2       9 UNK        -0.5274 
     30 CA        -74.5853   27.2706  -77.3215 C.3       8 UNK         0.0270 
     31 CB        -74.1644   26.9920  -78.7791 C.3       8 UNK        -0.1976 
     32 N         -73.7756   26.4990  -76.3738 N.am      8 UNK        -0.4313 
     33 C         -72.4541   26.5898  -76.1430 C.2       8 UNK         0.5041 
     34 O         -71.6840   27.3295  -76.7540 O.2       8 UNK        -0.5577 
     35 CA        -71.8748   25.6770  -75.0452 C.3       7 UNK         0.0284 
     36 CB        -71.8639   26.4105  -73.6929 C.3       7 UNK        -0.1958 
     37 N         -72.5986   24.4126  -74.9026 N.am      7 UNK        -0.4454 
     38 C         -72.6939   23.4673  -75.8485 C.2       7 UNK         0.5089 
     39 O         -72.0716   23.4948  -76.9106 O.2       7 UNK        -0.5125 
     40 CA        -73.6622   22.3006  -75.5776 C.3       6 UNK         0.0408 
     41 CB        -72.8778   21.0219  -75.2406 C.3       6 UNK        -0.1791 
     42 N         -74.6520   22.5481  -74.5199 N.am      6 UNK        -0.4762 
     43 C         -75.6088   23.4885  -74.5419 C.2       6 UNK         0.5007 
     44 O         -75.7171   24.3438  -75.4247 O.2       6 UNK        -0.5032 
     45 CA        -76.5813   23.4935  -73.3558 C.3       5 UNK         0.0783 
     46 C46       -76.2032   24.5837  -72.3231 C.3       11 UNK        -0.0857 
     47 S47       -77.0306   24.2809  -70.7293 S.3       11 UNK        -0.2512 
     48 C48       -76.1309   25.4249  -69.6260 C.3       11 UNK         0.0225 
     49 N         -77.9251   23.6784  -73.9011 N.am      5 UNK        -0.4615 
     50 C         -78.9589   22.8594  -73.6764 C.2       4 UNK         0.5053 
     51 O         -78.9234   21.9116  -72.8906 O.2       4 UNK        -0.5105 
     52 CA        -80.2530   23.1089  -74.4706 C.3       4 UNK         0.0263 
     53 CB        -81.3100   23.8025  -73.5950 C.3       4 UNK        -0.1981 
     54 N         -80.0657   23.8658  -75.7140 N.am      4 UNK        -0.4224 
     55 C         -79.4749   23.3741  -76.8134 C.2       3 UNK         0.4895 
     56 O         -78.9528   22.2595  -76.8599 O.2       3 UNK        -0.5091 
     57 CA        -79.4835   24.2343  -78.0858 C.3       3 UNK         0.0250 
     58 CB        -80.7716   23.9846  -78.8886 C.3       3 UNK        -0.1996 
     59 N         -79.3555   25.6706  -77.8210 N.am      3 UNK        -0.4254 
     60 C         -78.4758   26.4754  -78.4373 C.2       2 UNK         0.5004 
     61 O         -77.6386   26.0791  -79.2485 O.2       2 UNK        -0.5226 
     62 CA        -78.5372   27.9868  -78.1371 C.3       2 UNK         0.0269 
     63 CB        -79.2066   28.7370  -79.2998 C.3       2 UNK        -0.1926 
     64 N         -79.2314   28.3283  -76.8944 N.am      2 UNK        -0.4687 
     65 C         -78.7861   28.0455  -75.6633 C.2       1 UNK         0.5165 
     66 O         -77.6884   27.5258  -75.4520 O.2       1 UNK        -0.5079 
     67 H67       -83.6195   27.4606  -76.5871 H         1 UNK         0.0900 
     68 H68       -83.8808   26.7741  -74.9815 H         1 UNK         0.0900 
     69 H69       -83.6821   28.5174  -75.1736 H         1 UNK         0.0900 
     70 H70       -81.6598   29.2107  -74.5638 H         1 UNK         0.2959 
     71 H71       -79.4882   29.4275  -74.2342 H         1 UNK         0.1079 
     72 H72       -79.5109   26.4780  -73.4514 H         1 UNK         0.0837 
     73 H73       -78.3339   27.6532  -72.9622 H         1 UNK         0.0837 
     74 H74       -79.2636   30.0393  -71.5529 H         1 UNK         0.0685 
     75 H75       -79.9187   29.5139  -70.0204 H         1 UNK         0.0685 
     76 H76       -78.5031   26.5930  -70.3594 H         1 UNK         0.1434 
     77 H77       -74.4470   27.5415  -69.3626 H         1 UNK         0.1329 
     78 H78       -77.1926   30.6719  -70.3725 H         1 UNK         0.1335 
     79 H79       -73.7133   29.7956  -69.1888 H         1 UNK         0.0680 
     80 H80       -74.9956   30.8666  -68.6882 H         1 UNK         0.0680 
     81 H81       -72.0556   30.6264  -71.2826 H         1 UNK         0.1032 
     82 H82       -73.1836   29.3798  -71.7593 H         1 UNK         0.1032 
     83 H83       -72.8550   32.0092  -73.2776 H         1 UNK         0.0461 
     84 H84       -72.3969   29.9349  -75.7410 H         1 UNK         0.3453 
     85 H85       -70.6713   29.7485  -75.6207 H         1 UNK         0.3453 
     86 H86       -74.4620   29.6020  -73.8404 H         1 UNK         0.2984 
     87 H87       -76.6447   30.4701  -74.9673 H         1 UNK         0.0554 
     88 H88       -76.7354   32.3636  -76.5658 H         1 UNK         0.0847 
     89 H89       -77.3046   30.8899  -77.3298 H         1 UNK         0.0847 
     90 H90       -75.6920   31.5058  -77.6892 H         1 UNK         0.0847 
     91 H91       -76.2054   28.4660  -75.7975 H         1 UNK         0.3141 
     92 H92       -75.6045   26.8978  -77.2103 H         1 UNK         0.0743 
     93 H93       -73.1491   27.3306  -78.9871 H         1 UNK         0.0784 
     94 H94       -74.2169   25.9274  -79.0072 H         1 UNK         0.0784 
     95 H95       -74.8274   27.5056  -79.4764 H         1 UNK         0.0784 
     96 H96       -74.3006   25.8154  -75.8371 H         1 UNK         0.3213 
     97 H97       -70.8440   25.4425  -75.3201 H         1 UNK         0.0855 
     98 H98       -72.8709   26.6670  -73.3611 H         1 UNK         0.0814 
     99 H99       -71.2973   27.3403  -73.7614 H         1 UNK         0.0814 
    100 H100      -71.3957   25.8065  -72.9156 H         1 UNK         0.0814 
    101 H101      -73.1273   24.2795  -74.0540 H         1 UNK         0.3105 
    102 H102      -74.2140   22.1261  -76.5036 H         1 UNK         0.0547 
    103 H103      -72.1556   20.7879  -76.0242 H         1 UNK         0.0837 
    104 H104      -72.3226   21.1224  -74.3072 H         1 UNK         0.0837 
    105 H105      -73.5396   20.1605  -75.1489 H         1 UNK         0.0837 
    106 H106      -74.6273   21.9042  -73.7412 H         1 UNK         0.3020 
    107 H107      -76.5077   22.5162  -72.8724 H         1 UNK         0.1245 
    108 H108      -76.4650   25.5800  -72.6860 H         1 UNK         0.0781 
    109 H109      -75.1268   24.5922  -72.1401 H         1 UNK         0.0781 
    110 H110      -75.0607   25.2334  -69.7185 H         1 UNK         0.0836 
    111 H111      -76.3967   25.1887  -68.5950 H         1 UNK         0.0836 
    112 H112      -78.0070   24.3918  -74.6127 H         1 UNK         0.3022 
    113 H113      -80.6479   22.1276  -74.7429 H         1 UNK         0.0747 
    114 H114      -82.2556   23.9109  -74.1267 H         1 UNK         0.0793 
    115 H115      -81.5106   23.2226  -72.6931 H         1 UNK         0.0793 
    116 H116      -80.9921   24.7941  -73.2771 H         1 UNK         0.0793 
    117 H117      -80.5101   24.7835  -75.7501 H         1 UNK         0.3047 
    118 H118      -78.6417   23.8879  -78.6894 H         1 UNK         0.0822 
    119 H119      -80.7469   24.5047  -79.8463 H         1 UNK         0.0807 
    120 H120      -81.6558   24.3228  -78.3463 H         1 UNK         0.0807 
    121 H121      -80.9027   22.9225  -79.1005 H         1 UNK         0.0807 
    122 H122      -80.0062   26.0729  -77.1525 H         1 UNK         0.2946 
    123 H123      -77.5075   28.3386  -78.0606 H         1 UNK         0.1144 
    124 H124      -79.1799   29.8158  -79.1450 H         1 UNK         0.0793 
    125 H125      -80.2485   28.4394  -79.4253 H         1 UNK         0.0793 
    126 H126      -78.6946   28.5351  -80.2419 H         1 UNK         0.0793 
    127 H127      -80.1471   28.7454  -76.9826 H         1 UNK         0.2896 
@<TRIPOS>BOND
     1    1    2 1    
     2    1   67 1    
     3    1   68 1    
     4    1   69 1    
     5    2    3 2    
     6    2    4 am   BACKBONE|DICT|INTERRES
     7    4    5 1    
     8    4   70 1    
     9    5    6 1    
    10    5   65 1    
    11    5   71 1    
    12    6    7 1    
    13    6   72 1    
    14    6   73 1    
    15    7    8 1    
    16    8    9 1    
    17    8   74 1    
    18    8   75 1    
    19    9   10 ar   
    20    9   14 ar   
    21   10   11 ar   
    22   10   76 1    
    23   11   12 ar   
    24   11   48 1    
    25   12   13 ar   
    26   12   77 1    
    27   13   14 ar   
    28   13   15 1    
    29   14   78 1    
    30   15   16 1    
    31   15   79 1    
    32   15   80 1    
    33   16   17 1    
    34   17   18 1    
    35   17   81 1    
    36   17   82 1    
    37   18   19 1    
    38   18   22 1    
    39   18   83 1    
    40   19   20 am   BACKBONE|DICT|INTERRES
    41   19   21 2    
    42   20   84 1    
    43   20   85 1    
    44   22   23 am   BACKBONE|DICT|INTERRES
    45   22   86 1    
    46   23   24 2    
    47   23   25 1    
    48   25   26 1    
    49   25   27 1    
    50   25   87 1    
    51   26   88 1    
    52   26   89 1    
    53   26   90 1    
    54   27   28 am   BACKBONE|DICT|INTERRES
    55   27   91 1    
    56   28   29 2    
    57   28   30 1    
    58   30   31 1    
    59   30   32 1    
    60   30   92 1    
    61   31   93 1    
    62   31   94 1    
    63   31   95 1    
    64   32   33 am   BACKBONE|DICT|INTERRES
    65   32   96 1    
    66   33   34 2    
    67   33   35 1    
    68   35   36 1    
    69   35   37 1    
    70   35   97 1    
    71   36   98 1    
    72   36   99 1    
    73   36  100 1    
    74   37   38 am   BACKBONE|DICT|INTERRES
    75   37  101 1    
    76   38   39 2    
    77   38   40 1    
    78   40   41 1    
    79   40   42 1    
    80   40  102 1    
    81   41  103 1    
    82   41  104 1    
    83   41  105 1    
    84   42   43 am   BACKBONE|DICT|INTERRES
    85   42  106 1    
    86   43   44 2    
    87   43   45 1    
    88   45   46 1    
    89   45   49 1    
    90   45  107 1    
    91   46   47 1    
    92   46  108 1    
    93   46  109 1    
    94   47   48 1    
    95   48  110 1    
    96   48  111 1    
    97   49   50 am   BACKBONE|DICT|INTERRES
    98   49  112 1    
    99   50   51 2    
   100   50   52 1    
   101   52   53 1    
   102   52   54 1    
   103   52  113 1    
   104   53  114 1    
   105   53  115 1    
   106   53  116 1    
   107   54   55 am   BACKBONE|DICT|INTERRES
   108   54  117 1    
   109   55   56 2    
   110   55   57 1    
   111   57   58 1    
   112   57   59 1    
   113   57  118 1    
   114   58  119 1    
   115   58  120 1    
   116   58  121 1    
   117   59   60 am   BACKBONE|DICT|INTERRES
   118   59  122 1    
   119   60   61 2    
   120   60   62 1    
   121   62   63 1    
   122   62   64 1    
   123   62  123 1    
   124   63  124 1    
   125   63  125 1    
   126   63  126 1    
   127   64   65 am   BACKBONE|DICT|INTERRES
   128   64  127 1    
   129   65   66 2    
@<TRIPOS>SUBSTRUCTURE
     1 UNK         1 GROUP             0       ****    0 ROOT    
