@<TRIPOS>MOLECULE
3R135
127   129    1
SMALL
USER_CHARGES


@<TRIPOS>ATOM
      1 CA        -77.7923   24.6069  -77.6570 C.3       0 UNK        -0.1998 
      2 C         -78.1636   23.6055  -76.5771 C.2       0 UNK         0.4909 
      3 O         -77.9663   22.4035  -76.7583 O.2       0 UNK        -0.5240 
      4 N         -78.7196   24.0818  -75.4578 N.am      1 UNK        -0.4739 
      5 CA        -79.0736   23.2892  -74.2719 C.3       1 UNK         0.0864 
      6 C6        -79.0150   24.1483  -72.9822 C.3       11 UNK        -0.0881 
      7 S7        -77.4008   24.9602  -72.7566 S.3       11 UNK        -0.2682 
      8 C8        -77.3990   25.2656  -70.9646 C.3       11 UNK         0.0289 
      9 C9        -76.8058   26.6335  -70.6870 C.ar      11 UNK        -0.0687 
     10 C10       -77.6411   27.7404  -70.5297 C.ar      11 UNK        -0.0823 
     11 C11       -77.0994   29.0193  -70.3766 C.ar      11 UNK        -0.0830 
     12 C12       -75.7093   29.1820  -70.3541 C.ar      11 UNK        -0.1021 
     13 C13       -74.8649   28.0765  -70.4978 C.ar      11 UNK        -0.0753 
     14 C14       -75.4211   26.8042  -70.6471 C.ar      11 UNK        -0.0933 
     15 C15       -73.3526   28.2412  -70.5071 C.3       11 UNK         0.0166 
     16 S16       -72.6998   28.3356  -72.2059 S.3       11 UNK        -0.2615 
     17 C17       -72.8448   30.1244  -72.5500 C.3       11 UNK        -0.0865 
     18 CA        -73.0977   30.4248  -74.0481 C.3       10 UNK         0.0862 
     19 C         -73.3931   31.9308  -74.2757 C.2       10 UNK         0.5551 
     20 N         -74.5990   32.2674  -74.7106 N.am      10 UNK        -0.7319 
     21 O         -72.5487   32.7880  -74.0238 O.2       10 UNK        -0.5018 
     22 N         -72.0002   29.9227  -74.8851 N.am      10 UNK        -0.4509 
     23 C         -71.9344   29.9426  -76.2219 C.2       10 UNK         0.4899 
     24 O         -72.7968   30.4310  -76.9505 O.2       10 UNK        -0.4839 
     25 CA        -70.7280   29.2393  -76.8726 C.3       9 UNK         0.0222 
     26 CB        -69.4900   30.1573  -76.9091 C.3       9 UNK        -0.1966 
     27 N         -70.4331   27.9197  -76.2895 N.am      9 UNK        -0.4218 
     28 C         -69.9426   27.6320  -75.0754 C.2       9 UNK         0.5020 
     29 O         -69.5940   28.4787  -74.2510 O.2       9 UNK        -0.5274 
     30 CA        -69.9739   26.1530  -74.6841 C.3       8 UNK         0.0270 
     31 CB        -69.0755   25.8265  -73.4753 C.3       8 UNK        -0.1976 
     32 N         -71.3622   25.8374  -74.3665 N.am      8 UNK        -0.4313 
     33 C         -71.9781   24.6758  -74.6085 C.2       8 UNK         0.5041 
     34 O         -71.4308   23.6959  -75.1156 O.2       8 UNK        -0.5577 
     35 CA        -73.4644   24.6047  -74.2178 C.3       7 UNK         0.0284 
     36 CB        -73.5908   24.3289  -72.7122 C.3       7 UNK        -0.1958 
     37 N         -74.1990   25.8260  -74.5827 N.am      7 UNK        -0.4454 
     38 C         -74.4872   26.1544  -75.8514 C.2       7 UNK         0.5089 
     39 O         -74.2524   25.4164  -76.8091 O.2       7 UNK        -0.5125 
     40 CA        -75.1262   27.5307  -76.0939 C.3       6 UNK         0.0408 
     41 CB        -75.5238   27.7657  -77.5686 C.3       6 UNK        -0.1791 
     42 N         -76.2580   27.7760  -75.1950 N.am      6 UNK        -0.4762 
     43 C         -76.7501   28.9948  -74.9312 C.2       6 UNK         0.5007 
     44 O         -76.3052   30.0320  -75.4283 O.2       6 UNK        -0.5032 
     45 CA        -77.9521   29.0954  -73.9759 C.3       5 UNK         0.0783 
     46 C46       -77.8503   30.3793  -73.1069 C.3       11 UNK        -0.0857 
     47 S47       -79.0805   30.4033  -71.7600 S.3       11 UNK        -0.2512 
     48 C48       -78.0199   30.2290  -70.2838 C.3       11 UNK         0.0225 
     49 N         -79.1843   29.0985  -74.7652 N.am      5 UNK        -0.4615 
     50 C         -79.7703   28.0302  -75.3158 C.2       4 UNK         0.5053 
     51 O         -79.3657   26.8755  -75.1667 O.2       4 UNK        -0.5105 
     52 CA        -81.0089   28.3465  -76.1790 C.3       4 UNK         0.0263 
     53 CB        -80.5928   28.9461  -77.5394 C.3       4 UNK        -0.1981 
     54 N         -81.9407   27.2214  -76.3522 N.am      4 UNK        -0.4224 
     55 C         -81.7581   26.0911  -77.0487 C.2       3 UNK         0.4895 
     56 O         -80.7491   25.8193  -77.7023 O.2       3 UNK        -0.5091 
     57 CA        -82.9137   25.0848  -77.0342 C.3       3 UNK         0.0250 
     58 CB        -83.7371   25.1568  -78.3328 C.3       3 UNK        -0.1996 
     59 N         -82.3158   23.7674  -76.8772 N.am      3 UNK        -0.4254 
     60 C         -82.9072   22.6699  -76.3931 C.2       2 UNK         0.5004 
     61 O         -84.1126   22.5783  -76.1587 O.2       2 UNK        -0.5226 
     62 CA        -81.9712   21.4899  -76.0671 C.3       2 UNK         0.0269 
     63 CB        -81.7892   20.5823  -77.2940 C.3       2 UNK        -0.1926 
     64 N         -80.6576   21.9487  -75.5977 N.am      2 UNK        -0.4687 
     65 C         -80.4527   22.6158  -74.4520 C.2       1 UNK         0.5165 
     66 O         -81.3239   22.7468  -73.5896 O.2       1 UNK        -0.5079 
     67 H67       -76.7217   24.5684  -77.8553 H         1 UNK         0.0900 
     68 H68       -78.0530   25.6231  -77.3622 H         1 UNK         0.0900 
     69 H69       -78.3232   24.3786  -78.5806 H         1 UNK         0.0900 
     70 H70       -78.9113   25.0801  -75.3793 H         1 UNK         0.2959 
     71 H71       -78.3456   22.4823  -74.1619 H         1 UNK         0.1079 
     72 H72       -79.7822   24.9254  -72.9995 H         1 UNK         0.0837 
     73 H73       -79.2189   23.5265  -72.1082 H         1 UNK         0.0837 
     74 H74       -78.4131   25.2106  -70.5658 H         1 UNK         0.0685 
     75 H75       -76.8222   24.4878  -70.4620 H         1 UNK         0.0685 
     76 H76       -78.7147   27.6150  -70.5722 H         1 UNK         0.1434 
     77 H77       -75.2849   30.1698  -70.2403 H         1 UNK         0.1329 
     78 H78       -74.7758   25.9467  -70.7585 H         1 UNK         0.1335 
     79 H79       -73.0535   29.1242  -69.9401 H         1 UNK         0.0680 
     80 H80       -72.8914   27.3897  -70.0045 H         1 UNK         0.0680 
     81 H81       -71.9349   30.6202  -72.2062 H         1 UNK         0.1032 
     82 H82       -73.6583   30.5340  -71.9500 H         1 UNK         0.1032 
     83 H83       -73.9837   29.8623  -74.3325 H         1 UNK         0.0461 
     84 H84       -74.8214   33.2386  -74.8581 H         1 UNK         0.3453 
     85 H85       -75.2655   31.5456  -74.9738 H         1 UNK         0.3453 
     86 H86       -71.2134   29.5132  -74.3901 H         1 UNK         0.2984 
     87 H87       -71.0071   29.0381  -77.9082 H         1 UNK         0.0554 
     88 H88       -69.1659   30.4544  -75.9114 H         1 UNK         0.0847 
     89 H89       -69.7056   31.0733  -77.4607 H         1 UNK         0.0847 
     90 H90       -68.6495   29.6713  -77.4043 H         1 UNK         0.0847 
     91 H91       -70.7293   27.1366  -76.8570 H         1 UNK         0.3141 
     92 H92       -69.6360   25.5677  -75.5422 H         1 UNK         0.0743 
     93 H93       -68.0394   26.1033  -73.6737 H         1 UNK         0.0784 
     94 H94       -69.3928   26.3613  -72.5789 H         1 UNK         0.0784 
     95 H95       -69.0902   24.7601  -73.2496 H         1 UNK         0.0784 
     96 H96       -71.8923   26.5874  -73.9411 H         1 UNK         0.3213 
     97 H97       -73.9121   23.7637  -74.7525 H         1 UNK         0.0855 
     98 H98       -73.0733   23.4069  -72.4439 H         1 UNK         0.0814 
     99 H99       -74.6301   24.2063  -72.4136 H         1 UNK         0.0814 
    100 H100      -73.1502   25.1288  -72.1169 H         1 UNK         0.0814 
    101 H101      -74.4323   26.4702  -73.8399 H         1 UNK         0.3105 
    102 H102      -74.3419   28.2479  -75.8565 H         1 UNK         0.0547 
    103 H103      -74.6839   27.5754  -78.2377 H         1 UNK         0.0837 
    104 H104      -75.8318   28.7961  -77.7434 H         1 UNK         0.0837 
    105 H105      -76.3418   27.1176  -77.8769 H         1 UNK         0.0837 
    106 H106      -76.6976   26.9605  -74.7846 H         1 UNK         0.3020 
    107 H107      -77.9442   28.2212  -73.3208 H         1 UNK         0.1245 
    108 H108      -78.0002   31.2726  -73.7164 H         1 UNK         0.0781 
    109 H109      -76.8502   30.4842  -72.6825 H         1 UNK         0.0781 
    110 H110      -78.6517   30.1328  -69.3998 H         1 UNK         0.0836 
    111 H111      -77.4449   31.1471  -70.1530 H         1 UNK         0.0836 
    112 H112      -79.5742   30.0109  -74.9499 H         1 UNK         0.3022 
    113 H113      -81.5807   29.1069  -75.6444 H         1 UNK         0.0747 
    114 H114      -81.4618   29.1666  -78.1593 H         1 UNK         0.0793 
    115 H115      -80.0461   29.8804  -77.4072 H         1 UNK         0.0793 
    116 H116      -79.9426   28.2736  -78.0999 H         1 UNK         0.0793 
    117 H117      -82.8076   27.3150  -75.8413 H         1 UNK         0.3047 
    118 H118      -83.5604   25.2854  -76.1772 H         1 UNK         0.0822 
    119 H119      -84.5615   24.4436  -78.3222 H         1 UNK         0.0807 
    120 H120      -83.1232   24.9459  -79.2094 H         1 UNK         0.0807 
    121 H121      -84.1686   26.1496  -78.4662 H         1 UNK         0.0807 
    122 H122      -81.3161   23.7541  -77.0353 H         1 UNK         0.2946 
    123 H123      -82.4377   20.9080  -75.2687 H         1 UNK         0.1144 
    124 H124      -82.7520   20.2167  -77.6540 H         1 UNK         0.0793 
    125 H125      -81.1811   19.7097  -77.0547 H         1 UNK         0.0793 
    126 H126      -81.3101   21.1092  -78.1202 H         1 UNK         0.0793 
    127 H127      -79.8755   21.8761  -76.2408 H         1 UNK         0.2896 
@<TRIPOS>BOND
     1    1    2 1    
     2    1   67 1    
     3    1   68 1    
     4    1   69 1    
     5    2    3 2    
     6    2    4 am   BACKBONE|DICT|INTERRES
     7    4    5 1    
     8    4   70 1    
     9    5    6 1    
    10    5   65 1    
    11    5   71 1    
    12    6    7 1    
    13    6   72 1    
    14    6   73 1    
    15    7    8 1    
    16    8    9 1    
    17    8   74 1    
    18    8   75 1    
    19    9   10 ar   
    20    9   14 ar   
    21   10   11 ar   
    22   10   76 1    
    23   11   12 ar   
    24   11   48 1    
    25   12   13 ar   
    26   12   77 1    
    27   13   14 ar   
    28   13   15 1    
    29   14   78 1    
    30   15   16 1    
    31   15   79 1    
    32   15   80 1    
    33   16   17 1    
    34   17   18 1    
    35   17   81 1    
    36   17   82 1    
    37   18   19 1    
    38   18   22 1    
    39   18   83 1    
    40   19   20 am   BACKBONE|DICT|INTERRES
    41   19   21 2    
    42   20   84 1    
    43   20   85 1    
    44   22   23 am   BACKBONE|DICT|INTERRES
    45   22   86 1    
    46   23   24 2    
    47   23   25 1    
    48   25   26 1    
    49   25   27 1    
    50   25   87 1    
    51   26   88 1    
    52   26   89 1    
    53   26   90 1    
    54   27   28 am   BACKBONE|DICT|INTERRES
    55   27   91 1    
    56   28   29 2    
    57   28   30 1    
    58   30   31 1    
    59   30   32 1    
    60   30   92 1    
    61   31   93 1    
    62   31   94 1    
    63   31   95 1    
    64   32   33 am   BACKBONE|DICT|INTERRES
    65   32   96 1    
    66   33   34 2    
    67   33   35 1    
    68   35   36 1    
    69   35   37 1    
    70   35   97 1    
    71   36   98 1    
    72   36   99 1    
    73   36  100 1    
    74   37   38 am   BACKBONE|DICT|INTERRES
    75   37  101 1    
    76   38   39 2    
    77   38   40 1    
    78   40   41 1    
    79   40   42 1    
    80   40  102 1    
    81   41  103 1    
    82   41  104 1    
    83   41  105 1    
    84   42   43 am   BACKBONE|DICT|INTERRES
    85   42  106 1    
    86   43   44 2    
    87   43   45 1    
    88   45   46 1    
    89   45   49 1    
    90   45  107 1    
    91   46   47 1    
    92   46  108 1    
    93   46  109 1    
    94   47   48 1    
    95   48  110 1    
    96   48  111 1    
    97   49   50 am   BACKBONE|DICT|INTERRES
    98   49  112 1    
    99   50   51 2    
   100   50   52 1    
   101   52   53 1    
   102   52   54 1    
   103   52  113 1    
   104   53  114 1    
   105   53  115 1    
   106   53  116 1    
   107   54   55 am   BACKBONE|DICT|INTERRES
   108   54  117 1    
   109   55   56 2    
   110   55   57 1    
   111   57   58 1    
   112   57   59 1    
   113   57  118 1    
   114   58  119 1    
   115   58  120 1    
   116   58  121 1    
   117   59   60 am   BACKBONE|DICT|INTERRES
   118   59  122 1    
   119   60   61 2    
   120   60   62 1    
   121   62   63 1    
   122   62   64 1    
   123   62  123 1    
   124   63  124 1    
   125   63  125 1    
   126   63  126 1    
   127   64   65 am   BACKBONE|DICT|INTERRES
   128   64  127 1    
   129   65   66 2    
@<TRIPOS>SUBSTRUCTURE
     1 UNK         1 GROUP             0       ****    0 ROOT    
