@<TRIPOS>MOLECULE
3R135
127   129    1
SMALL
USER_CHARGES


@<TRIPOS>ATOM
      1 CA        -82.7858   27.5288  -70.4394 C.3       0 UNK        -0.1998 
      2 C         -83.2233   27.6382  -71.8923 C.2       0 UNK         0.4909 
      3 O         -84.3704   27.3275  -72.2137 O.2       0 UNK        -0.5240 
      4 N         -82.3150   28.0755  -72.7737 N.am      1 UNK        -0.4739 
      5 CA        -82.5414   28.2178  -74.2186 C.3       1 UNK         0.0864 
      6 C6        -81.5579   29.2387  -74.8509 C.3       11 UNK        -0.0881 
      7 S7        -79.7997   28.7707  -74.6854 S.3       11 UNK        -0.2682 
      8 C8        -79.2420   29.8463  -73.3315 C.3       11 UNK         0.0289 
      9 C9        -78.0383   29.2375  -72.6313 C.ar      11 UNK        -0.0687 
     10 C10       -78.2132   28.1311  -71.7959 C.ar      11 UNK        -0.0823 
     11 C11       -77.1231   27.5549  -71.1409 C.ar      11 UNK        -0.0830 
     12 C12       -75.8500   28.1079  -71.3087 C.ar      11 UNK        -0.1021 
     13 C13       -75.6598   29.2150  -72.1421 C.ar      11 UNK        -0.0753 
     14 C14       -76.7576   29.7698  -72.8100 C.ar      11 UNK        -0.0933 
     15 C15       -74.2636   29.7875  -72.3430 C.3       11 UNK         0.0166 
     16 S16       -74.1285   31.5013  -71.7437 S.3       11 UNK        -0.2615 
     17 C17       -72.3316   31.8145  -71.8784 C.3       11 UNK        -0.0865 
     18 CA        -71.9371   32.4726  -73.2366 C.3       10 UNK         0.0862 
     19 C         -70.5449   33.1828  -73.2535 C.2       10 UNK         0.5551 
     20 N         -70.0174   33.6174  -72.1160 N.am      10 UNK        -0.7319 
     21 O         -69.9600   33.4073  -74.3121 O.2       10 UNK        -0.5018 
     22 N         -72.1337   31.5421  -74.3619 N.am      10 UNK        -0.4509 
     23 C         -71.3769   30.4739  -74.6528 C.2       10 UNK         0.4899 
     24 O         -70.3386   30.1675  -74.0614 O.2       10 UNK        -0.4839 
     25 CA        -71.8759   29.6173  -75.8313 C.3       9 UNK         0.0222 
     26 CB        -71.3575   30.1869  -77.1622 C.3       9 UNK        -0.1966 
     27 N         -71.5203   28.1951  -75.7569 N.am      9 UNK        -0.4218 
     28 C         -71.7517   27.3578  -74.7348 C.2       9 UNK         0.5020 
     29 O         -72.2282   27.6914  -73.6502 O.2       9 UNK        -0.5274 
     30 CA        -71.4645   25.8757  -75.0171 C.3       8 UNK         0.0270 
     31 CB        -71.4518   25.0129  -73.7408 C.3       8 UNK        -0.1976 
     32 N         -72.5140   25.3903  -75.9093 N.am      8 UNK        -0.4313 
     33 C         -72.4086   25.3070  -77.2422 C.2       8 UNK         0.5041 
     34 O         -71.3590   25.5104  -77.8542 O.2       8 UNK        -0.5577 
     35 CA        -73.6865   24.9788  -78.0388 C.3       7 UNK         0.0284 
     36 CB        -73.7842   23.4667  -78.2966 C.3       7 UNK        -0.1958 
     37 N         -74.9212   25.4346  -77.3959 N.am      7 UNK        -0.4454 
     38 C         -75.2230   26.7057  -77.0914 C.2       7 UNK         0.5089 
     39 O         -74.5292   27.6726  -77.4057 O.2       7 UNK        -0.5125 
     40 CA        -76.5132   26.9334  -76.2827 C.3       6 UNK         0.0408 
     41 CB        -77.6780   27.1819  -77.2541 C.3       6 UNK        -0.1791 
     42 N         -76.8583   25.8303  -75.3744 N.am      6 UNK        -0.4762 
     43 C         -76.0680   25.3211  -74.4133 C.2       6 UNK         0.5007 
     44 O         -74.9198   25.7053  -74.1982 O.2       6 UNK        -0.5032 
     45 CA        -76.6157   24.1186  -73.6229 C.3       5 UNK         0.0783 
     46 C46       -77.5364   24.5369  -72.4474 C.3       11 UNK        -0.0857 
     47 S47       -76.5706   24.8339  -70.9259 S.3       11 UNK        -0.2512 
     48 C48       -77.3278   26.3430  -70.2437 C.3       11 UNK         0.0225 
     49 N         -77.2714   23.1785  -74.5332 N.am      5 UNK        -0.4615 
     50 C         -76.6272   22.2144  -75.2060 C.2       4 UNK         0.5053 
     51 O         -75.4292   21.9675  -75.0688 O.2       4 UNK        -0.5105 
     52 CA        -77.4467   21.3850  -76.2106 C.3       4 UNK         0.0263 
     53 CB        -77.9944   20.1162  -75.5378 C.3       4 UNK        -0.1981 
     54 N         -78.5540   22.1290  -76.8139 N.am      4 UNK        -0.4224 
     55 C         -78.4095   23.1804  -77.6325 C.2       3 UNK         0.4895 
     56 O         -77.3202   23.6178  -78.0039 O.2       3 UNK        -0.5091 
     57 CA        -79.7019   23.8893  -78.0751 C.3       3 UNK         0.0250 
     58 CB        -80.2588   23.2391  -79.3515 C.3       3 UNK        -0.1996 
     59 N         -80.7529   23.9351  -77.0490 N.am      3 UNK        -0.4254 
     60 C         -80.6171   24.4692  -75.8268 C.2       2 UNK         0.5004 
     61 O         -79.5540   24.9046  -75.3786 O.2       2 UNK        -0.5226 
     62 CA        -81.8602   24.4764  -74.9280 C.3       2 UNK         0.0269 
     63 CB        -81.7161   23.4326  -73.8082 C.3       2 UNK        -0.1926 
     64 N         -82.0377   25.7990  -74.3311 N.am      2 UNK        -0.4687 
     65 C         -82.5389   26.8655  -74.9718 C.2       1 UNK         0.5165 
     66 O         -82.9942   26.8131  -76.1159 O.2       1 UNK        -0.5079 
     67 H67       -81.7554   27.8540  -70.2965 H         1 UNK         0.0900 
     68 H68       -82.8661   26.4964  -70.1003 H         1 UNK         0.0900 
     69 H69       -83.4253   28.1453  -69.8082 H         1 UNK         0.0900 
     70 H70       -81.3869   28.3155  -72.4598 H         1 UNK         0.2959 
     71 H71       -83.5472   28.6232  -74.3521 H         1 UNK         0.1079 
     72 H72       -81.7760   29.3642  -75.9132 H         1 UNK         0.0837 
     73 H73       -81.7134   30.2241  -74.4089 H         1 UNK         0.0837 
     74 H74       -79.0066   30.8340  -73.7307 H         1 UNK         0.0685 
     75 H75       -80.0434   29.9884  -72.6055 H         1 UNK         0.0685 
     76 H76       -79.2004   27.7111  -71.6661 H         1 UNK         0.1434 
     77 H77       -75.0048   27.6619  -70.8021 H         1 UNK         0.1329 
     78 H78       -76.6124   30.6208  -73.4612 H         1 UNK         0.1335 
     79 H79       -73.5214   29.1733  -71.8312 H         1 UNK         0.0680 
     80 H80       -74.0236   29.7496  -73.4050 H         1 UNK         0.0680 
     81 H81       -71.7707   30.8932  -71.7115 H         1 UNK         0.1032 
     82 H82       -72.0887   32.4667  -71.0395 H         1 UNK         0.1032 
     83 H83       -72.6402   33.2868  -73.4159 H         1 UNK         0.0461 
     84 H84       -69.1305   34.0961  -72.1442 H         1 UNK         0.3453 
     85 H85       -70.4818   33.4820  -71.2327 H         1 UNK         0.3453 
     86 H86       -72.9355   31.7371  -74.9433 H         1 UNK         0.2984 
     87 H87       -72.9670   29.6607  -75.8404 H         1 UNK         0.0554 
     88 H88       -71.7828   29.6557  -78.0143 H         1 UNK         0.0847 
     89 H89       -70.2708   30.1214  -77.2308 H         1 UNK         0.0847 
     90 H90       -71.6267   31.2382  -77.2735 H         1 UNK         0.0847 
     91 H91       -71.1432   27.7907  -76.6027 H         1 UNK         0.3141 
     92 H92       -70.4819   25.7976  -75.4873 H         1 UNK         0.0743 
     93 H93       -72.4106   25.0409  -73.2209 H         1 UNK         0.0784 
     94 H94       -71.2278   23.9713  -73.9707 H         1 UNK         0.0784 
     95 H95       -70.6912   25.3639  -73.0424 H         1 UNK         0.0784 
     96 H96       -73.4351   25.3124  -75.4858 H         1 UNK         0.3213 
     97 H97       -73.6113   25.4893  -79.0011 H         1 UNK         0.0855 
     98 H98       -73.8965   22.9062  -77.3674 H         1 UNK         0.0814 
     99 H99       -72.8880   23.0963  -78.7962 H         1 UNK         0.0814 
    100 H100      -74.6338   23.2270  -78.9364 H         1 UNK         0.0814 
    101 H101      -75.6097   24.7244  -77.1746 H         1 UNK         0.3105 
    102 H102      -76.3775   27.8228  -75.6639 H         1 UNK         0.0547 
    103 H103      -77.5637   28.1444  -77.7539 H         1 UNK         0.0837 
    104 H104      -77.7198   26.4194  -78.0314 H         1 UNK         0.0837 
    105 H105      -78.6413   27.1890  -76.7476 H         1 UNK         0.0837 
    106 H106      -77.8051   25.4634  -75.4563 H         1 UNK         0.3020 
    107 H107      -75.7475   23.6076  -73.1983 H         1 UNK         0.1245 
    108 H108      -78.2389   23.7350  -72.2150 H         1 UNK         0.0781 
    109 H109      -78.1523   25.4007  -72.7041 H         1 UNK         0.0781 
    110 H110      -76.8868   26.5461  -69.2668 H         1 UNK         0.0836 
    111 H111      -78.3887   26.1598  -70.0655 H         1 UNK         0.0836 
    112 H112      -78.2387   23.3764  -74.7572 H         1 UNK         0.3022 
    113 H113      -76.7706   21.0831  -77.0137 H         1 UNK         0.0747 
    114 H114      -78.5072   19.4754  -76.2555 H         1 UNK         0.0793 
    115 H115      -77.1866   19.5274  -75.1006 H         1 UNK         0.0793 
    116 H116      -78.6953   20.3533  -74.7363 H         1 UNK         0.0793 
    117 H117      -79.4893   21.8408  -76.5663 H         1 UNK         0.3047 
    118 H118      -79.4429   24.9218  -78.3115 H         1 UNK         0.0822 
    119 H119      -81.1092   23.7973  -79.7437 H         1 UNK         0.0807 
    120 H120      -80.5820   22.2123  -79.1759 H         1 UNK         0.0807 
    121 H121      -79.5025   23.2127  -80.1376 H         1 UNK         0.0807 
    122 H122      -81.6599   23.5876  -77.3263 H         1 UNK         0.2946 
    123 H123      -82.7441   24.2343  -75.5226 H         1 UNK         0.1144 
    124 H124      -82.5969   23.4174  -73.1658 H         1 UNK         0.0793 
    125 H125      -80.8467   23.6295  -73.1792 H         1 UNK         0.0793 
    126 H126      -81.5999   22.4295  -74.2207 H         1 UNK         0.0793 
    127 H127      -81.6470   25.9405  -73.4120 H         1 UNK         0.2896 
@<TRIPOS>BOND
     1    1    2 1    
     2    1   67 1    
     3    1   68 1    
     4    1   69 1    
     5    2    3 2    
     6    2    4 am   BACKBONE|DICT|INTERRES
     7    4    5 1    
     8    4   70 1    
     9    5    6 1    
    10    5   65 1    
    11    5   71 1    
    12    6    7 1    
    13    6   72 1    
    14    6   73 1    
    15    7    8 1    
    16    8    9 1    
    17    8   74 1    
    18    8   75 1    
    19    9   10 ar   
    20    9   14 ar   
    21   10   11 ar   
    22   10   76 1    
    23   11   12 ar   
    24   11   48 1    
    25   12   13 ar   
    26   12   77 1    
    27   13   14 ar   
    28   13   15 1    
    29   14   78 1    
    30   15   16 1    
    31   15   79 1    
    32   15   80 1    
    33   16   17 1    
    34   17   18 1    
    35   17   81 1    
    36   17   82 1    
    37   18   19 1    
    38   18   22 1    
    39   18   83 1    
    40   19   20 am   BACKBONE|DICT|INTERRES
    41   19   21 2    
    42   20   84 1    
    43   20   85 1    
    44   22   23 am   BACKBONE|DICT|INTERRES
    45   22   86 1    
    46   23   24 2    
    47   23   25 1    
    48   25   26 1    
    49   25   27 1    
    50   25   87 1    
    51   26   88 1    
    52   26   89 1    
    53   26   90 1    
    54   27   28 am   BACKBONE|DICT|INTERRES
    55   27   91 1    
    56   28   29 2    
    57   28   30 1    
    58   30   31 1    
    59   30   32 1    
    60   30   92 1    
    61   31   93 1    
    62   31   94 1    
    63   31   95 1    
    64   32   33 am   BACKBONE|DICT|INTERRES
    65   32   96 1    
    66   33   34 2    
    67   33   35 1    
    68   35   36 1    
    69   35   37 1    
    70   35   97 1    
    71   36   98 1    
    72   36   99 1    
    73   36  100 1    
    74   37   38 am   BACKBONE|DICT|INTERRES
    75   37  101 1    
    76   38   39 2    
    77   38   40 1    
    78   40   41 1    
    79   40   42 1    
    80   40  102 1    
    81   41  103 1    
    82   41  104 1    
    83   41  105 1    
    84   42   43 am   BACKBONE|DICT|INTERRES
    85   42  106 1    
    86   43   44 2    
    87   43   45 1    
    88   45   46 1    
    89   45   49 1    
    90   45  107 1    
    91   46   47 1    
    92   46  108 1    
    93   46  109 1    
    94   47   48 1    
    95   48  110 1    
    96   48  111 1    
    97   49   50 am   BACKBONE|DICT|INTERRES
    98   49  112 1    
    99   50   51 2    
   100   50   52 1    
   101   52   53 1    
   102   52   54 1    
   103   52  113 1    
   104   53  114 1    
   105   53  115 1    
   106   53  116 1    
   107   54   55 am   BACKBONE|DICT|INTERRES
   108   54  117 1    
   109   55   56 2    
   110   55   57 1    
   111   57   58 1    
   112   57   59 1    
   113   57  118 1    
   114   58  119 1    
   115   58  120 1    
   116   58  121 1    
   117   59   60 am   BACKBONE|DICT|INTERRES
   118   59  122 1    
   119   60   61 2    
   120   60   62 1    
   121   62   63 1    
   122   62   64 1    
   123   62  123 1    
   124   63  124 1    
   125   63  125 1    
   126   63  126 1    
   127   64   65 am   BACKBONE|DICT|INTERRES
   128   64  127 1    
   129   65   66 2    
@<TRIPOS>SUBSTRUCTURE
     1 UNK         1 GROUP             0       ****    0 ROOT    
