@<TRIPOS>MOLECULE
3R135
127   129    1
SMALL
USER_CHARGES


@<TRIPOS>ATOM
      1 CA        -80.8771   29.3644  -76.1176 C.3       0 UNK        -0.1998 
      2 C         -80.5482   28.3634  -75.0204 C.2       0 UNK         0.4909 
      3 O         -79.6877   27.5048  -75.2161 O.2       0 UNK        -0.5240 
      4 N         -81.2241   28.4712  -73.8679 N.am      1 UNK        -0.4739 
      5 CA        -81.0571   27.5697  -72.7231 C.3       1 UNK         0.0864 
      6 C6        -81.7295   28.0975  -71.4262 C.3       11 UNK        -0.0881 
      7 S7        -81.3471   29.8346  -71.0111 S.3       11 UNK        -0.2682 
      8 C8        -79.7379   29.6964  -70.1609 C.3       11 UNK         0.0289 
      9 C9        -78.6091   29.3603  -71.1264 C.ar      11 UNK        -0.0687 
     10 C10       -77.8008   28.2398  -70.9132 C.ar      11 UNK        -0.0823 
     11 C11       -76.8045   27.9016  -71.8338 C.ar      11 UNK        -0.0830 
     12 C12       -76.6192   28.6936  -72.9722 C.ar      11 UNK        -0.1021 
     13 C13       -77.4013   29.8353  -73.1831 C.ar      11 UNK        -0.0753 
     14 C14       -78.3867   30.1627  -72.2495 C.ar      11 UNK        -0.0933 
     15 C15       -77.2630   30.6998  -74.4339 C.3       11 UNK         0.0166 
     16 S16       -75.5765   30.8304  -75.1088 S.3       11 UNK        -0.2615 
     17 C17       -74.7025   31.8508  -73.8685 C.3       11 UNK        -0.0865 
     18 CA        -73.3695   31.2281  -73.3574 C.3       10 UNK         0.0862 
     19 C         -73.5615   30.3113  -72.1140 C.2       10 UNK         0.5551 
     20 N         -73.0912   29.0699  -72.1239 N.am      10 UNK        -0.7319 
     21 O         -74.1143   30.7491  -71.1084 O.2       10 UNK        -0.5018 
     22 N         -72.6033   30.6154  -74.4551 N.am      10 UNK        -0.4509 
     23 C         -71.2729   30.5764  -74.5646 C.2       10 UNK         0.4899 
     24 O         -70.4952   31.1025  -73.7668 O.2       10 UNK        -0.4839 
     25 CA        -70.7481   29.7908  -75.7787 C.3       9 UNK         0.0222 
     26 CB        -69.2539   30.0479  -76.0716 C.3       9 UNK        -0.1966 
     27 N         -71.0348   28.3554  -75.6535 N.am      9 UNK        -0.4218 
     28 C         -70.5491   27.5008  -74.7356 C.2       9 UNK         0.5020 
     29 O         -69.7553   27.8246  -73.8518 O.2       9 UNK        -0.5274 
     30 CA        -71.0240   26.0335  -74.7838 C.3       8 UNK         0.0270 
     31 CB        -71.6734   25.6241  -73.4495 C.3       8 UNK        -0.1976 
     32 N         -71.9561   25.7525  -75.8795 N.am      8 UNK        -0.4313 
     33 C         -71.5931   25.5432  -77.1547 C.2       8 UNK         0.5041 
     34 O         -70.4195   25.5087  -77.5263 O.2       8 UNK        -0.5577 
     35 CA        -72.7083   25.3664  -78.2049 C.3       7 UNK         0.0284 
     36 CB        -72.8305   23.8895  -78.6129 C.3       7 UNK        -0.1958 
     37 N         -74.0189   25.8626  -77.7728 N.am      7 UNK        -0.4454 
     38 C         -74.3045   27.1516  -77.5292 C.2       7 UNK         0.5089 
     39 O         -73.4941   28.0663  -77.6866 O.2       7 UNK        -0.5125 
     40 CA        -75.6950   27.4767  -76.9476 C.3       6 UNK         0.0408 
     41 CB        -76.6596   27.9279  -78.0537 C.3       6 UNK        -0.1791 
     42 N         -76.3154   26.3960  -76.1765 N.am      6 UNK        -0.4762 
     43 C         -75.7586   25.7665  -75.1308 C.2       6 UNK         0.5007 
     44 O         -74.6373   26.0311  -74.6991 O.2       6 UNK        -0.5032 
     45 CA        -76.5596   24.6054  -74.5067 C.3       5 UNK         0.0783 
     46 C46       -77.5077   25.1385  -73.4011 C.3       11 UNK        -0.0857 
     47 S47       -76.7941   25.1010  -71.7242 S.3       11 UNK        -0.2512 
     48 C48       -75.9121   26.6926  -71.5903 C.3       11 UNK         0.0225 
     49 N         -77.2938   23.7909  -75.4894 N.am      5 UNK        -0.4615 
     50 C         -76.8305   23.2901  -76.6460 C.2       4 UNK         0.5053 
     51 O         -75.6805   23.4554  -77.0523 O.2       4 UNK        -0.5105 
     52 CA        -77.8076   22.4752  -77.5140 C.3       4 UNK         0.0263 
     53 CB        -77.3905   20.9958  -77.5478 C.3       4 UNK        -0.1981 
     54 N         -79.2050   22.5631  -77.0826 N.am      4 UNK        -0.4224 
     55 C         -79.9963   23.6382  -77.1978 C.2       3 UNK         0.4895 
     56 O         -79.6413   24.6971  -77.7151 O.2       3 UNK        -0.5091 
     57 CA        -81.4242   23.5071  -76.6350 C.3       3 UNK         0.0250 
     58 CB        -82.0657   22.1378  -76.9493 C.3       3 UNK        -0.1996 
     59 N         -81.5206   23.8055  -75.1998 N.am      3 UNK        -0.4254 
     60 C         -80.8728   23.2273  -74.1779 C.2       2 UNK         0.5004 
     61 O         -80.0048   22.3639  -74.3157 O.2       2 UNK        -0.5226 
     62 CA        -81.2481   23.7143  -72.7618 C.3       2 UNK         0.0269 
     63 CB        -80.5787   22.8784  -71.6540 C.3       2 UNK        -0.1926 
     64 N         -80.9136   25.1253  -72.5484 N.am      2 UNK        -0.4687 
     65 C         -81.5901   26.1625  -73.0559 C.2       1 UNK         0.5165 
     66 O         -82.6106   26.0366  -73.7397 O.2       1 UNK        -0.5079 
     67 H67       -79.9682   29.8505  -76.4700 H         1 UNK         0.0900 
     68 H68       -81.3377   28.8529  -76.9622 H         1 UNK         0.0900 
     69 H69       -81.5625   30.1377  -75.7712 H         1 UNK         0.0900 
     70 H70       -81.9251   29.1893  -73.7578 H         1 UNK         0.2959 
     71 H71       -79.9844   27.4801  -72.5466 H         1 UNK         0.1079 
     72 H72       -82.8161   28.0285  -71.5119 H         1 UNK         0.0837 
     73 H73       -81.4586   27.4692  -70.5754 H         1 UNK         0.0837 
     74 H74       -79.8123   28.9551  -69.3638 H         1 UNK         0.0685 
     75 H75       -79.5126   30.6484  -69.6785 H         1 UNK         0.0685 
     76 H76       -77.9529   27.6198  -70.0402 H         1 UNK         0.1434 
     77 H77       -75.8590   28.4217  -73.6908 H         1 UNK         0.1329 
     78 H78       -79.0139   31.0281  -72.4142 H         1 UNK         0.1335 
     79 H79       -77.9005   30.2713  -75.2073 H         1 UNK         0.0680 
     80 H80       -77.6381   31.7075  -74.2476 H         1 UNK         0.0680 
     81 H81       -75.3728   32.0957  -73.0421 H         1 UNK         0.1032 
     82 H82       -74.4821   32.8060  -74.3470 H         1 UNK         0.1032 
     83 H83       -72.7758   32.0624  -72.9787 H         1 UNK         0.0461 
     84 H84       -73.1977   28.4986  -71.3021 H         1 UNK         0.3453 
     85 H85       -72.5977   28.7233  -72.9288 H         1 UNK         0.3453 
     86 H86       -73.1671   30.1562  -75.1569 H         1 UNK         0.2984 
     87 H87       -71.3100   30.1386  -76.6473 H         1 UNK         0.0554 
     88 H88       -69.0735   31.1073  -76.2576 H         1 UNK         0.0847 
     89 H89       -68.9240   29.5025  -76.9557 H         1 UNK         0.0847 
     90 H90       -68.6134   29.7549  -75.2393 H         1 UNK         0.0847 
     91 H91       -71.7046   27.9928  -76.3221 H         1 UNK         0.3141 
     92 H92       -70.1342   25.4156  -74.9221 H         1 UNK         0.0743 
     93 H93       -70.9582   25.6950  -72.6289 H         1 UNK         0.0784 
     94 H94       -72.5182   26.2645  -73.1960 H         1 UNK         0.0784 
     95 H95       -72.0299   24.5943  -73.4781 H         1 UNK         0.0784 
     96 H96       -72.9452   25.7795  -75.6416 H         1 UNK         0.3213 
     97 H97       -72.4141   25.9396  -79.0868 H         1 UNK         0.0855 
     98 H98       -73.0871   23.2570  -77.7622 H         1 UNK         0.0814 
     99 H99       -71.8892   23.5184  -79.0206 H         1 UNK         0.0814 
    100 H100      -73.5935   23.7483  -79.3785 H         1 UNK         0.0814 
    101 H101      -74.7225   25.1586  -77.5667 H         1 UNK         0.3105 
    102 H102      -75.5573   28.3057  -76.2572 H         1 UNK         0.0547 
    103 H103      -77.6067   28.2712  -77.6360 H         1 UNK         0.0837 
    104 H104      -76.8735   27.1211  -78.7558 H         1 UNK         0.0837 
    105 H105      -76.2391   28.7573  -78.6241 H         1 UNK         0.0837 
    106 H106      -77.2433   26.1112  -76.4609 H         1 UNK         0.3020 
    107 H107      -75.8300   23.9293  -74.0560 H         1 UNK         0.1245 
    108 H108      -78.3810   24.4932  -73.3393 H         1 UNK         0.0781 
    109 H109      -77.9080   26.1278  -73.6314 H         1 UNK         0.0781 
    110 H110      -75.0596   26.6954  -72.2686 H         1 UNK         0.0836 
    111 H111      -75.4876   26.7676  -70.5883 H         1 UNK         0.0836 
    112 H112      -78.2442   23.5505  -75.2403 H         1 UNK         0.3022 
    113 H113      -77.7419   22.8730  -78.5288 H         1 UNK         0.0747 
    114 H114      -78.0261   20.4190  -78.2199 H         1 UNK         0.0793 
    115 H115      -76.3645   20.8860  -77.9025 H         1 UNK         0.0793 
    116 H116      -77.4440   20.5393  -76.5585 H         1 UNK         0.0793 
    117 H117      -79.5678   21.7745  -76.5635 H         1 UNK         0.3047 
    118 H118      -82.0208   24.2672  -77.1422 H         1 UNK         0.0822 
    119 H119      -83.1283   22.1410  -76.7064 H         1 UNK         0.0807 
    120 H120      -81.6059   21.3220  -76.3907 H         1 UNK         0.0807 
    121 H121      -81.9808   21.8988  -78.0104 H         1 UNK         0.0807 
    122 H122      -82.1455   24.5693  -74.9555 H         1 UNK         0.2946 
    123 H123      -82.3291   23.5908  -72.6595 H         1 UNK         0.1144 
    124 H124      -79.4916   22.9633  -71.6799 H         1 UNK         0.0793 
    125 H125      -80.8248   21.8209  -71.7603 H         1 UNK         0.0793 
    126 H126      -80.9154   23.1882  -70.6645 H         1 UNK         0.0793 
    127 H127      -80.0883   25.3056  -71.9947 H         1 UNK         0.2896 
@<TRIPOS>BOND
     1    1    2 1    
     2    1   67 1    
     3    1   68 1    
     4    1   69 1    
     5    2    3 2    
     6    2    4 am   BACKBONE|DICT|INTERRES
     7    4    5 1    
     8    4   70 1    
     9    5    6 1    
    10    5   65 1    
    11    5   71 1    
    12    6    7 1    
    13    6   72 1    
    14    6   73 1    
    15    7    8 1    
    16    8    9 1    
    17    8   74 1    
    18    8   75 1    
    19    9   10 ar   
    20    9   14 ar   
    21   10   11 ar   
    22   10   76 1    
    23   11   12 ar   
    24   11   48 1    
    25   12   13 ar   
    26   12   77 1    
    27   13   14 ar   
    28   13   15 1    
    29   14   78 1    
    30   15   16 1    
    31   15   79 1    
    32   15   80 1    
    33   16   17 1    
    34   17   18 1    
    35   17   81 1    
    36   17   82 1    
    37   18   19 1    
    38   18   22 1    
    39   18   83 1    
    40   19   20 am   BACKBONE|DICT|INTERRES
    41   19   21 2    
    42   20   84 1    
    43   20   85 1    
    44   22   23 am   BACKBONE|DICT|INTERRES
    45   22   86 1    
    46   23   24 2    
    47   23   25 1    
    48   25   26 1    
    49   25   27 1    
    50   25   87 1    
    51   26   88 1    
    52   26   89 1    
    53   26   90 1    
    54   27   28 am   BACKBONE|DICT|INTERRES
    55   27   91 1    
    56   28   29 2    
    57   28   30 1    
    58   30   31 1    
    59   30   32 1    
    60   30   92 1    
    61   31   93 1    
    62   31   94 1    
    63   31   95 1    
    64   32   33 am   BACKBONE|DICT|INTERRES
    65   32   96 1    
    66   33   34 2    
    67   33   35 1    
    68   35   36 1    
    69   35   37 1    
    70   35   97 1    
    71   36   98 1    
    72   36   99 1    
    73   36  100 1    
    74   37   38 am   BACKBONE|DICT|INTERRES
    75   37  101 1    
    76   38   39 2    
    77   38   40 1    
    78   40   41 1    
    79   40   42 1    
    80   40  102 1    
    81   41  103 1    
    82   41  104 1    
    83   41  105 1    
    84   42   43 am   BACKBONE|DICT|INTERRES
    85   42  106 1    
    86   43   44 2    
    87   43   45 1    
    88   45   46 1    
    89   45   49 1    
    90   45  107 1    
    91   46   47 1    
    92   46  108 1    
    93   46  109 1    
    94   47   48 1    
    95   48  110 1    
    96   48  111 1    
    97   49   50 am   BACKBONE|DICT|INTERRES
    98   49  112 1    
    99   50   51 2    
   100   50   52 1    
   101   52   53 1    
   102   52   54 1    
   103   52  113 1    
   104   53  114 1    
   105   53  115 1    
   106   53  116 1    
   107   54   55 am   BACKBONE|DICT|INTERRES
   108   54  117 1    
   109   55   56 2    
   110   55   57 1    
   111   57   58 1    
   112   57   59 1    
   113   57  118 1    
   114   58  119 1    
   115   58  120 1    
   116   58  121 1    
   117   59   60 am   BACKBONE|DICT|INTERRES
   118   59  122 1    
   119   60   61 2    
   120   60   62 1    
   121   62   63 1    
   122   62   64 1    
   123   62  123 1    
   124   63  124 1    
   125   63  125 1    
   126   63  126 1    
   127   64   65 am   BACKBONE|DICT|INTERRES
   128   64  127 1    
   129   65   66 2    
@<TRIPOS>SUBSTRUCTURE
     1 UNK         1 GROUP             0       ****    0 ROOT    
