@<TRIPOS>MOLECULE
3R135
127   129    1
SMALL
USER_CHARGES


@<TRIPOS>ATOM
      1 CA        -78.1288   31.0012  -75.8872 C.3       0 UNK        -0.1998 
      2 C         -79.1098   30.0619  -75.2040 C.2       0 UNK         0.4909 
      3 O         -80.3011   30.0896  -75.5155 O.2       0 UNK        -0.5240 
      4 N         -78.6077   29.2324  -74.2785 N.am      1 UNK        -0.4739 
      5 CA        -79.3227   28.2508  -73.4443 C.3       1 UNK         0.0864 
      6 C6        -80.4569   28.8510  -72.5638 C.3       11 UNK        -0.0881 
      7 S7        -79.9145   30.2210  -71.4851 S.3       11 UNK        -0.2682 
      8 C8        -79.7141   29.3779  -69.8831 C.3       11 UNK         0.0289 
      9 C9        -78.4735   28.5013  -69.8879 C.ar      11 UNK        -0.0687 
     10 C10       -78.5733   27.1274  -70.1258 C.ar      11 UNK        -0.0823 
     11 C11       -77.4254   26.3336  -70.2119 C.ar      11 UNK        -0.0830 
     12 C12       -76.1715   26.9281  -70.0139 C.ar      11 UNK        -0.1021 
     13 C13       -76.0608   28.3007  -69.7816 C.ar      11 UNK        -0.0753 
     14 C14       -77.2164   29.0800  -69.7021 C.ar      11 UNK        -0.0933 
     15 C15       -74.6896   28.9473  -69.6645 C.3       11 UNK         0.0166 
     16 S16       -73.9944   29.3179  -71.3074 S.3       11 UNK        -0.2615 
     17 C17       -75.1281   30.6330  -71.8835 C.3       11 UNK        -0.0865 
     18 CA        -74.6784   31.3443  -73.1860 C.3       10 UNK         0.0862 
     19 C         -73.4417   32.2617  -72.9636 C.2       10 UNK         0.5551 
     20 N         -73.6477   33.4420  -72.3942 N.am      10 UNK        -0.7319 
     21 O         -72.3041   31.9103  -73.2685 O.2       10 UNK        -0.5018 
     22 N         -74.5212   30.3845  -74.2868 N.am      10 UNK        -0.4509 
     23 C         -74.4286   30.7045  -75.5837 C.2       10 UNK         0.4899 
     24 O         -74.5358   31.8542  -76.0131 O.2       10 UNK        -0.4839 
     25 CA        -74.2346   29.5316  -76.5654 C.3       9 UNK         0.0222 
     26 CB        -73.7030   29.9769  -77.9442 C.3       9 UNK        -0.1966 
     27 N         -73.4262   28.4395  -76.0115 N.am      9 UNK        -0.4218 
     28 C         -72.1357   28.4817  -75.6414 C.2       9 UNK         0.5020 
     29 O         -71.4135   29.4740  -75.7370 O.2       9 UNK        -0.5274 
     30 CA        -71.5476   27.1776  -75.0827 C.3       8 UNK         0.0270 
     31 CB        -71.9706   26.9698  -73.6181 C.3       8 UNK        -0.1976 
     32 N         -71.9665   26.0298  -75.8889 N.am      8 UNK        -0.4313 
     33 C         -71.3333   25.6094  -76.9934 C.2       8 UNK         0.5041 
     34 O         -70.2677   26.0792  -77.3945 O.2       8 UNK        -0.5577 
     35 CA        -71.9971   24.4722  -77.7928 C.3       7 UNK         0.0284 
     36 CB        -71.4773   23.1055  -77.3181 C.3       7 UNK        -0.1958 
     37 N         -73.4597   24.4905  -77.7106 N.am      7 UNK        -0.4454 
     38 C         -74.2435   25.4233  -78.2709 C.2       7 UNK         0.5089 
     39 O         -73.8239   26.3244  -78.9962 O.2       7 UNK        -0.5125 
     40 CA        -75.7486   25.3551  -77.9493 C.3       6 UNK         0.0408 
     41 CB        -76.4972   24.6291  -79.0769 C.3       6 UNK        -0.1791 
     42 N         -76.0657   24.7221  -76.6609 N.am      6 UNK        -0.4762 
     43 C         -75.6592   25.1694  -75.4623 C.2       6 UNK         0.5007 
     44 O         -74.9496   26.1685  -75.3285 O.2       6 UNK        -0.5032 
     45 CA        -76.0552   24.3422  -74.2245 C.3       5 UNK         0.0783 
     46 C46       -76.0581   25.1752  -72.9193 C.3       11 UNK        -0.0857 
     47 S47       -76.1607   24.1167  -71.4342 S.3       11 UNK        -0.2512 
     48 C48       -77.5778   24.8484  -70.5447 C.3       11 UNK         0.0225 
     49 N         -77.3318   23.6570  -74.4457 N.am      5 UNK        -0.4615 
     50 C         -77.4984   22.3304  -74.3855 C.2       4 UNK         0.5053 
     51 O         -76.5878   21.5273  -74.1806 O.2       4 UNK        -0.5105 
     52 CA        -78.9245   21.8029  -74.6025 C.3       4 UNK         0.0263 
     53 CB        -79.7449   21.9348  -73.3085 C.3       4 UNK        -0.1981 
     54 N         -79.6366   22.4654  -75.6966 N.am      4 UNK        -0.4224 
     55 C         -79.2685   22.4645  -76.9873 C.2       3 UNK         0.4895 
     56 O         -78.2480   21.9240  -77.4134 O.2       3 UNK        -0.5091 
     57 CA        -80.2011   23.1916  -77.9735 C.3       3 UNK         0.0250 
     58 CB        -81.1759   22.1955  -78.6220 C.3       3 UNK        -0.1996 
     59 N         -80.9627   24.2741  -77.3445 N.am      3 UNK        -0.4254 
     60 C         -80.4272   25.4198  -76.9009 C.2       2 UNK         0.5004 
     61 O         -79.2469   25.7277  -77.0759 O.2       2 UNK        -0.5226 
     62 CA        -81.3721   26.3758  -76.1459 C.3       2 UNK         0.0269 
     63 CB        -82.4693   25.6410  -75.3409 C.3       2 UNK        -0.1926 
     64 N         -80.6599   27.3131  -75.2711 N.am      2 UNK        -0.4687 
     65 C         -79.8496   27.0367  -74.2393 C.2       1 UNK         0.5165 
     66 O         -79.5343   25.8965  -73.8897 O.2       1 UNK        -0.5079 
     67 H67       -78.6437   31.8882  -76.2557 H         1 UNK         0.0900 
     68 H68       -77.3543   31.3317  -75.1961 H         1 UNK         0.0900 
     69 H69       -77.6548   30.5057  -76.7341 H         1 UNK         0.0900 
     70 H70       -77.6128   29.2625  -74.1099 H         1 UNK         0.2959 
     71 H71       -78.5620   27.8546  -72.7716 H         1 UNK         0.1079 
     72 H72       -80.9093   28.0738  -71.9453 H         1 UNK         0.0837 
     73 H73       -81.2672   29.2305  -73.1884 H         1 UNK         0.0837 
     74 H74       -79.6272   30.1292  -69.0968 H         1 UNK         0.0685 
     75 H75       -80.6070   28.7953  -69.6513 H         1 UNK         0.0685 
     76 H76       -79.5463   26.6813  -70.2808 H         1 UNK         0.1434 
     77 H77       -75.2698   26.3354  -70.0764 H         1 UNK         0.1329 
     78 H78       -77.1376   30.1456  -69.5359 H         1 UNK         0.1335 
     79 H79       -74.0101   28.2773  -69.1356 H         1 UNK         0.0680 
     80 H80       -74.7415   29.8618  -69.0717 H         1 UNK         0.0680 
     81 H81       -76.1096   30.1857  -72.0471 H         1 UNK         0.1032 
     82 H82       -75.2680   31.3600  -71.0814 H         1 UNK         0.1032 
     83 H83       -75.4973   32.0047  -73.4794 H         1 UNK         0.0461 
     84 H84       -72.8595   34.0484  -72.2290 H         1 UNK         0.3453 
     85 H85       -74.5736   33.7451  -72.1352 H         1 UNK         0.3453 
     86 H86       -74.3652   29.4264  -74.0113 H         1 UNK         0.2984 
     87 H87       -75.2278   29.1088  -76.7236 H         1 UNK         0.0554 
     88 H88       -74.3903   30.6761  -78.4218 H         1 UNK         0.0847 
     89 H89       -73.5878   29.1272  -78.6173 H         1 UNK         0.0847 
     90 H90       -72.7367   30.4756  -77.8646 H         1 UNK         0.0847 
     91 H91       -73.9371   27.5743  -75.8408 H         1 UNK         0.3141 
     92 H92       -70.4586   27.2590  -75.1075 H         1 UNK         0.0743 
     93 H93       -71.6404   27.8045  -72.9980 H         1 UNK         0.0784 
     94 H94       -73.0525   26.8955  -73.5084 H         1 UNK         0.0784 
     95 H95       -71.5290   26.0640  -73.2026 H         1 UNK         0.0784 
     96 H96       -72.8637   25.6220  -75.6624 H         1 UNK         0.3213 
     97 H97       -71.7157   24.5998  -78.8407 H         1 UNK         0.0855 
     98 H98       -71.7400   22.9098  -76.2777 H         1 UNK         0.0814 
     99 H99       -70.3900   23.0556  -77.3937 H         1 UNK         0.0814 
    100 H100      -71.8791   22.2944  -77.9257 H         1 UNK         0.0814 
    101 H101      -73.9007   23.7688  -77.1595 H         1 UNK         0.3105 
    102 H102      -76.1149   26.3831  -77.9064 H         1 UNK         0.0547 
    103 H103      -77.5740   24.7337  -78.9602 H         1 UNK         0.0837 
    104 H104      -76.2421   25.0468  -80.0520 H         1 UNK         0.0837 
    105 H105      -76.2606   23.5648  -79.1035 H         1 UNK         0.0837 
    106 H106      -76.6533   23.8995  -76.6909 H         1 UNK         0.3020 
    107 H107      -75.2518   23.6082  -74.1301 H         1 UNK         0.1245 
    108 H108      -76.8783   25.8942  -72.9323 H         1 UNK         0.0781 
    109 H109      -75.1430   25.7611  -72.8188 H         1 UNK         0.0781 
    110 H110      -77.7320   24.2961  -69.6171 H         1 UNK         0.0836 
    111 H111      -78.4706   24.6916  -71.1531 H         1 UNK         0.0836 
    112 H112      -78.1367   24.2543  -74.5999 H         1 UNK         0.3022 
    113 H113      -78.8494   20.7429  -74.8543 H         1 UNK         0.0747 
    114 H114      -80.7267   21.4721  -73.4104 H         1 UNK         0.0793 
    115 H115      -79.2411   21.4424  -72.4754 H         1 UNK         0.0793 
    116 H116      -79.8918   22.9791  -73.0277 H         1 UNK         0.0793 
    117 H117      -80.4854   22.9516  -75.4498 H         1 UNK         0.3047 
    118 H118      -79.5832   23.6213  -78.7634 H         1 UNK         0.0822 
    119 H119      -80.6348   21.3908  -79.1221 H         1 UNK         0.0807 
    120 H120      -81.7976   22.6808  -79.3747 H         1 UNK         0.0807 
    121 H121      -81.8360   21.7350  -77.8857 H         1 UNK         0.0807 
    122 H122      -81.9471   24.1080  -77.1916 H         1 UNK         0.2946 
    123 H123      -81.8607   26.9838  -76.9090 H         1 UNK         0.1144 
    124 H124      -83.0758   26.3460  -74.7720 H         1 UNK         0.0793 
    125 H125      -82.0454   24.9273  -74.6332 H         1 UNK         0.0793 
    126 H126      -83.1545   25.0978  -75.9924 H         1 UNK         0.0793 
    127 H127      -80.7733   28.3007  -75.4917 H         1 UNK         0.2896 
@<TRIPOS>BOND
     1    1    2 1    
     2    1   67 1    
     3    1   68 1    
     4    1   69 1    
     5    2    3 2    
     6    2    4 am   BACKBONE|DICT|INTERRES
     7    4    5 1    
     8    4   70 1    
     9    5    6 1    
    10    5   65 1    
    11    5   71 1    
    12    6    7 1    
    13    6   72 1    
    14    6   73 1    
    15    7    8 1    
    16    8    9 1    
    17    8   74 1    
    18    8   75 1    
    19    9   10 ar   
    20    9   14 ar   
    21   10   11 ar   
    22   10   76 1    
    23   11   12 ar   
    24   11   48 1    
    25   12   13 ar   
    26   12   77 1    
    27   13   14 ar   
    28   13   15 1    
    29   14   78 1    
    30   15   16 1    
    31   15   79 1    
    32   15   80 1    
    33   16   17 1    
    34   17   18 1    
    35   17   81 1    
    36   17   82 1    
    37   18   19 1    
    38   18   22 1    
    39   18   83 1    
    40   19   20 am   BACKBONE|DICT|INTERRES
    41   19   21 2    
    42   20   84 1    
    43   20   85 1    
    44   22   23 am   BACKBONE|DICT|INTERRES
    45   22   86 1    
    46   23   24 2    
    47   23   25 1    
    48   25   26 1    
    49   25   27 1    
    50   25   87 1    
    51   26   88 1    
    52   26   89 1    
    53   26   90 1    
    54   27   28 am   BACKBONE|DICT|INTERRES
    55   27   91 1    
    56   28   29 2    
    57   28   30 1    
    58   30   31 1    
    59   30   32 1    
    60   30   92 1    
    61   31   93 1    
    62   31   94 1    
    63   31   95 1    
    64   32   33 am   BACKBONE|DICT|INTERRES
    65   32   96 1    
    66   33   34 2    
    67   33   35 1    
    68   35   36 1    
    69   35   37 1    
    70   35   97 1    
    71   36   98 1    
    72   36   99 1    
    73   36  100 1    
    74   37   38 am   BACKBONE|DICT|INTERRES
    75   37  101 1    
    76   38   39 2    
    77   38   40 1    
    78   40   41 1    
    79   40   42 1    
    80   40  102 1    
    81   41  103 1    
    82   41  104 1    
    83   41  105 1    
    84   42   43 am   BACKBONE|DICT|INTERRES
    85   42  106 1    
    86   43   44 2    
    87   43   45 1    
    88   45   46 1    
    89   45   49 1    
    90   45  107 1    
    91   46   47 1    
    92   46  108 1    
    93   46  109 1    
    94   47   48 1    
    95   48  110 1    
    96   48  111 1    
    97   49   50 am   BACKBONE|DICT|INTERRES
    98   49  112 1    
    99   50   51 2    
   100   50   52 1    
   101   52   53 1    
   102   52   54 1    
   103   52  113 1    
   104   53  114 1    
   105   53  115 1    
   106   53  116 1    
   107   54   55 am   BACKBONE|DICT|INTERRES
   108   54  117 1    
   109   55   56 2    
   110   55   57 1    
   111   57   58 1    
   112   57   59 1    
   113   57  118 1    
   114   58  119 1    
   115   58  120 1    
   116   58  121 1    
   117   59   60 am   BACKBONE|DICT|INTERRES
   118   59  122 1    
   119   60   61 2    
   120   60   62 1    
   121   62   63 1    
   122   62   64 1    
   123   62  123 1    
   124   63  124 1    
   125   63  125 1    
   126   63  126 1    
   127   64   65 am   BACKBONE|DICT|INTERRES
   128   64  127 1    
   129   65   66 2    
@<TRIPOS>SUBSTRUCTURE
     1 UNK         1 GROUP             0       ****    0 ROOT    
