@<TRIPOS>MOLECULE
3R135
127   129    1
SMALL
USER_CHARGES


@<TRIPOS>ATOM
      1 CA        -77.1385   31.1794  -76.2611 C.3       0 UNK        -0.1998 
      2 C         -78.1501   30.1205  -75.8511 C.2       0 UNK         0.4909 
      3 O         -79.2509   30.0827  -76.4020 O.2       0 UNK        -0.5240 
      4 N         -77.7703   29.2526  -74.9033 N.am      1 UNK        -0.4739 
      5 CA        -78.5162   28.0877  -74.4067 C.3       1 UNK         0.0864 
      6 C6        -79.9417   28.3767  -73.8460 C.3       11 UNK        -0.0881 
      7 S7        -80.0050   29.6461  -72.5400 S.3       11 UNK        -0.2682 
      8 C8        -79.9342   28.6287  -71.0300 C.3       11 UNK         0.0289 
      9 C9        -78.5134   28.1603  -70.7666 C.ar      11 UNK        -0.0687 
     10 C10       -78.1579   26.8155  -70.8996 C.ar      11 UNK        -0.0823 
     11 C11       -76.8346   26.4101  -70.6962 C.ar      11 UNK        -0.0830 
     12 C12       -75.8683   27.3715  -70.3719 C.ar      11 UNK        -0.1021 
     13 C13       -76.2063   28.7229  -70.2513 C.ar      11 UNK        -0.0753 
     14 C14       -77.5435   29.0985  -70.4126 C.ar      11 UNK        -0.0933 
     15 C15       -75.0969   29.7343  -69.9549 C.3       11 UNK         0.0166 
     16 S16       -75.4870   31.4922  -70.2843 S.3       11 UNK        -0.2615 
     17 C17       -75.9420   31.5019  -72.0600 C.3       11 UNK        -0.0865 
     18 CA        -74.7937   31.8784  -73.0360 C.3       10 UNK         0.0862 
     19 C         -74.1968   33.2922  -72.8010 C.2       10 UNK         0.5551 
     20 N         -75.0054   34.3366  -72.9190 N.am      10 UNK        -0.7319 
     21 O         -73.0093   33.4536  -72.5209 O.2       10 UNK        -0.5018 
     22 N         -73.7439   30.8576  -73.0945 N.am      10 UNK        -0.4509 
     23 C         -73.8510   29.6691  -73.6920 C.2       10 UNK         0.4899 
     24 O         -74.8869   29.2426  -74.2142 O.2       10 UNK        -0.4839 
     25 CA        -72.5820   28.8094  -73.7034 C.3       9 UNK         0.0222 
     26 CB        -72.5130   27.9052  -72.4619 C.3       9 UNK        -0.1966 
     27 N         -72.6141   27.9832  -74.9032 N.am      9 UNK        -0.4218 
     28 C         -71.6128   27.8164  -75.7756 C.2       9 UNK         0.5020 
     29 O         -70.4764   28.2627  -75.6100 O.2       9 UNK        -0.5274 
     30 CA        -71.9248   27.0210  -77.0574 C.3       8 UNK         0.0270 
     31 CB        -71.2584   25.6360  -77.0101 C.3       8 UNK        -0.1976 
     32 N         -73.3654   26.8628  -77.2865 N.am      8 UNK        -0.4313 
     33 C         -74.1584   27.8189  -77.7957 C.2       8 UNK         0.5041 
     34 O         -73.7307   28.9061  -78.1865 O.2       8 UNK        -0.5577 
     35 CA        -75.6785   27.5555  -77.8314 C.3       7 UNK         0.0284 
     36 CB        -76.3654   28.1835  -79.0627 C.3       7 UNK        -0.1958 
     37 N         -76.0547   26.1465  -77.6650 N.am      7 UNK        -0.4454 
     38 C         -75.7818   25.1134  -78.4756 C.2       7 UNK         0.5089 
     39 O         -75.2226   25.2272  -79.5668 O.2       7 UNK        -0.5125 
     40 CA        -76.1737   23.7119  -77.9525 C.3       6 UNK         0.0408 
     41 CB        -75.2988   22.5983  -78.5632 C.3       6 UNK        -0.1791 
     42 N         -76.1860   23.5884  -76.4850 N.am      6 UNK        -0.4762 
     43 C         -75.1851   23.8901  -75.6383 C.2       6 UNK         0.5007 
     44 O         -74.1114   24.3602  -76.0143 O.2       6 UNK        -0.5032 
     45 CA        -75.3959   23.6613  -74.1281 C.3       5 UNK         0.0783 
     46 C46       -75.1750   24.9623  -73.3150 C.3       11 UNK        -0.0857 
     47 S47       -74.8613   24.5883  -71.5590 S.3       11 UNK        -0.2512 
     48 C48       -76.4802   24.9276  -70.7891 C.3       11 UNK         0.0225 
     49 N         -76.7029   23.0633  -73.8381 N.am      5 UNK        -0.4615 
     50 C         -76.9108   21.7535  -73.6596 C.2       4 UNK         0.5053 
     51 O         -76.0197   20.9053  -73.7120 O.2       4 UNK        -0.5105 
     52 CA        -78.3541   21.2990  -73.3714 C.3       4 UNK         0.0263 
     53 CB        -78.5634   21.1316  -71.8572 C.3       4 UNK        -0.1981 
     54 N         -79.4113   22.1671  -73.9064 N.am      4 UNK        -0.4224 
     55 C         -79.5948   22.4713  -75.1996 C.2       3 UNK         0.4895 
     56 O         -78.8097   22.1358  -76.0866 O.2       3 UNK        -0.5091 
     57 CA        -80.8612   23.2734  -75.5676 C.3       3 UNK         0.0250 
     58 CB        -81.8512   23.4638  -74.3988 C.3       3 UNK        -0.1996 
     59 N         -80.5037   24.5877  -76.0968 N.am      3 UNK        -0.4254 
     60 C         -80.0780   24.8436  -77.3406 C.2       2 UNK         0.5004 
     61 O         -80.0474   24.0061  -78.2427 O.2       2 UNK        -0.5226 
     62 CA        -79.6195   26.2817  -77.6515 C.3       2 UNK         0.0269 
     63 CB        -80.6115   26.9686  -78.6045 C.3       2 UNK        -0.1926 
     64 N         -79.4124   27.1567  -76.4894 N.am      2 UNK        -0.4687 
     65 C         -78.5527   26.9807  -75.4761 C.2       1 UNK         0.5165 
     66 O         -77.8033   26.0096  -75.3760 O.2       1 UNK        -0.5079 
     67 H67       -77.3310   32.1102  -75.7287 H         1 UNK         0.0900 
     68 H68       -76.1175   30.8618  -76.0510 H         1 UNK         0.0900 
     69 H69       -77.2104   31.3758  -77.3306 H         1 UNK         0.0900 
     70 H70       -76.8236   29.3248  -74.5384 H         1 UNK         0.2959 
     71 H71       -77.9152   27.6950  -73.5855 H         1 UNK         0.1079 
     72 H72       -80.3863   27.4579  -73.4595 H         1 UNK         0.0837 
     73 H73       -80.6147   28.7134  -74.6356 H         1 UNK         0.0837 
     74 H74       -80.6254   27.7882  -71.1074 H         1 UNK         0.0685 
     75 H75       -80.2744   29.2287  -70.1847 H         1 UNK         0.0685 
     76 H76       -78.9128   26.0857  -71.1584 H         1 UNK         0.1434 
     77 H77       -74.8425   27.0685  -70.2144 H         1 UNK         0.1329 
     78 H78       -77.8397   30.1323  -70.3084 H         1 UNK         0.1335 
     79 H79       -74.2112   29.4766  -70.5340 H         1 UNK         0.0680 
     80 H80       -74.8162   29.6384  -68.9055 H         1 UNK         0.0680 
     81 H81       -76.7716   32.1999  -72.1805 H         1 UNK         0.1032 
     82 H82       -76.3546   30.5350  -72.3455 H         1 UNK         0.1032 
     83 H83       -75.2218   31.9257  -74.0386 H         1 UNK         0.0461 
     84 H84       -74.6319   35.2611  -72.7698 H         1 UNK         0.3453 
     85 H85       -75.9792   34.2243  -73.1519 H         1 UNK         0.3453 
     86 H86       -72.8579   31.1565  -72.7078 H         1 UNK         0.2984 
     87 H87       -71.7104   29.4671  -73.7218 H         1 UNK         0.0554 
     88 H88       -71.6926   27.1911  -72.5347 H         1 UNK         0.0847 
     89 H89       -73.4352   27.3413  -72.3197 H         1 UNK         0.0847 
     90 H90       -72.3452   28.4940  -71.5603 H         1 UNK         0.0847 
     91 H91       -73.5326   27.6467  -75.1568 H         1 UNK         0.3141 
     92 H92       -71.4971   27.5713  -77.8982 H         1 UNK         0.0743 
     93 H93       -70.1729   25.7295  -76.9573 H         1 UNK         0.0784 
     94 H94       -71.4911   25.0506  -77.8999 H         1 UNK         0.0784 
     95 H95       -71.5753   25.0633  -76.1379 H         1 UNK         0.0784 
     96 H96       -73.7742   25.9835  -76.9765 H         1 UNK         0.3213 
     97 H97       -76.0691   28.0667  -76.9515 H         1 UNK         0.0855 
     98 H98       -76.0060   27.7479  -79.9950 H         1 UNK         0.0814 
     99 H99       -76.1746   29.2562  -79.1133 H         1 UNK         0.0814 
    100 H100      -77.4466   28.0578  -79.0250 H         1 UNK         0.0814 
    101 H101      -76.5304   25.9261  -76.7922 H         1 UNK         0.3105 
    102 H102      -77.2010   23.5434  -78.2782 H         1 UNK         0.0547 
    103 H103      -75.6036   21.6147  -78.2061 H         1 UNK         0.0837 
    104 H104      -74.2450   22.7337  -78.3168 H         1 UNK         0.0837 
    105 H105      -75.3804   22.5844  -79.6507 H         1 UNK         0.0837 
    106 H106      -77.0413   23.2019  -76.0977 H         1 UNK         0.3020 
    107 H107      -74.6050   22.9625  -73.8448 H         1 UNK         0.1245 
    108 H108      -76.0183   25.6474  -73.4142 H         1 UNK         0.0781 
    109 H109      -74.3007   25.5072  -73.6752 H         1 UNK         0.0781 
    110 H110      -77.2491   24.3793  -71.3344 H         1 UNK         0.0836 
    111 H111      -76.4717   24.5169  -69.7788 H         1 UNK         0.0836 
    112 H112      -77.4899   23.6949  -73.8106 H         1 UNK         0.3022 
    113 H113      -78.4761   20.3204  -73.8407 H         1 UNK         0.0747 
    114 H114      -79.5360   20.6917  -71.6357 H         1 UNK         0.0793 
    115 H115      -77.8082   20.4710  -71.4284 H         1 UNK         0.0793 
    116 H116      -78.4969   22.0850  -71.3319 H         1 UNK         0.0793 
    117 H117      -80.1031   22.4868  -73.2442 H         1 UNK         0.3047 
    118 H118      -81.3743   22.7079  -76.3485 H         1 UNK         0.0822 
    119 H119      -82.7544   23.9732  -74.7361 H         1 UNK         0.0807 
    120 H120      -81.4276   24.0567  -73.5871 H         1 UNK         0.0807 
    121 H121      -82.1699   22.5046  -73.9875 H         1 UNK         0.0807 
    122 H122      -80.4849   25.3502  -75.4375 H         1 UNK         0.2946 
    123 H123      -78.6684   26.1892  -78.1734 H         1 UNK         0.1144 
    124 H124      -80.2468   27.9468  -78.9193 H         1 UNK         0.0793 
    125 H125      -81.5871   27.1078  -78.1372 H         1 UNK         0.0793 
    126 H126      -80.7638   26.3771  -79.5086 H         1 UNK         0.0793 
    127 H127      -79.8959   28.0479  -76.5149 H         1 UNK         0.2896 
@<TRIPOS>BOND
     1    1    2 1    
     2    1   67 1    
     3    1   68 1    
     4    1   69 1    
     5    2    3 2    
     6    2    4 am   BACKBONE|DICT|INTERRES
     7    4    5 1    
     8    4   70 1    
     9    5    6 1    
    10    5   65 1    
    11    5   71 1    
    12    6    7 1    
    13    6   72 1    
    14    6   73 1    
    15    7    8 1    
    16    8    9 1    
    17    8   74 1    
    18    8   75 1    
    19    9   10 ar   
    20    9   14 ar   
    21   10   11 ar   
    22   10   76 1    
    23   11   12 ar   
    24   11   48 1    
    25   12   13 ar   
    26   12   77 1    
    27   13   14 ar   
    28   13   15 1    
    29   14   78 1    
    30   15   16 1    
    31   15   79 1    
    32   15   80 1    
    33   16   17 1    
    34   17   18 1    
    35   17   81 1    
    36   17   82 1    
    37   18   19 1    
    38   18   22 1    
    39   18   83 1    
    40   19   20 am   BACKBONE|DICT|INTERRES
    41   19   21 2    
    42   20   84 1    
    43   20   85 1    
    44   22   23 am   BACKBONE|DICT|INTERRES
    45   22   86 1    
    46   23   24 2    
    47   23   25 1    
    48   25   26 1    
    49   25   27 1    
    50   25   87 1    
    51   26   88 1    
    52   26   89 1    
    53   26   90 1    
    54   27   28 am   BACKBONE|DICT|INTERRES
    55   27   91 1    
    56   28   29 2    
    57   28   30 1    
    58   30   31 1    
    59   30   32 1    
    60   30   92 1    
    61   31   93 1    
    62   31   94 1    
    63   31   95 1    
    64   32   33 am   BACKBONE|DICT|INTERRES
    65   32   96 1    
    66   33   34 2    
    67   33   35 1    
    68   35   36 1    
    69   35   37 1    
    70   35   97 1    
    71   36   98 1    
    72   36   99 1    
    73   36  100 1    
    74   37   38 am   BACKBONE|DICT|INTERRES
    75   37  101 1    
    76   38   39 2    
    77   38   40 1    
    78   40   41 1    
    79   40   42 1    
    80   40  102 1    
    81   41  103 1    
    82   41  104 1    
    83   41  105 1    
    84   42   43 am   BACKBONE|DICT|INTERRES
    85   42  106 1    
    86   43   44 2    
    87   43   45 1    
    88   45   46 1    
    89   45   49 1    
    90   45  107 1    
    91   46   47 1    
    92   46  108 1    
    93   46  109 1    
    94   47   48 1    
    95   48  110 1    
    96   48  111 1    
    97   49   50 am   BACKBONE|DICT|INTERRES
    98   49  112 1    
    99   50   51 2    
   100   50   52 1    
   101   52   53 1    
   102   52   54 1    
   103   52  113 1    
   104   53  114 1    
   105   53  115 1    
   106   53  116 1    
   107   54   55 am   BACKBONE|DICT|INTERRES
   108   54  117 1    
   109   55   56 2    
   110   55   57 1    
   111   57   58 1    
   112   57   59 1    
   113   57  118 1    
   114   58  119 1    
   115   58  120 1    
   116   58  121 1    
   117   59   60 am   BACKBONE|DICT|INTERRES
   118   59  122 1    
   119   60   61 2    
   120   60   62 1    
   121   62   63 1    
   122   62   64 1    
   123   62  123 1    
   124   63  124 1    
   125   63  125 1    
   126   63  126 1    
   127   64   65 am   BACKBONE|DICT|INTERRES
   128   64  127 1    
   129   65   66 2    
@<TRIPOS>SUBSTRUCTURE
     1 UNK         1 GROUP             0       ****    0 ROOT    
