@<TRIPOS>MOLECULE
3R135
127   129    1
SMALL
USER_CHARGES


@<TRIPOS>ATOM
      1 CA        -82.4804   26.3446  -69.4058 C.3       0 UNK        -0.1998 
      2 C         -83.1358   26.2833  -70.7773 C.2       0 UNK         0.4909 
      3 O         -84.1375   25.5881  -70.9477 O.2       0 UNK        -0.5240 
      4 N         -82.5758   27.0084  -71.7552 N.am      1 UNK        -0.4739 
      5 CA        -83.0653   27.0924  -73.1410 C.3       1 UNK         0.0864 
      6 C6        -82.3832   28.2274  -73.9545 C.3       11 UNK        -0.0881 
      7 S7        -82.3128   29.8246  -73.0678 S.3       11 UNK        -0.2682 
      8 C8        -80.7914   30.5751  -73.7569 C.3       11 UNK         0.0289 
      9 C9        -79.4553   30.0267  -73.2410 C.ar      11 UNK        -0.0687 
     10 C10       -79.3442   28.8352  -72.5148 C.ar      11 UNK        -0.0823 
     11 C11       -78.1003   28.3518  -72.1077 C.ar      11 UNK        -0.0830 
     12 C12       -76.9467   29.0746  -72.4186 C.ar      11 UNK        -0.1021 
     13 C13       -77.0318   30.2871  -73.1183 C.ar      11 UNK        -0.0753 
     14 C14       -78.2892   30.7438  -73.5294 C.ar      11 UNK        -0.0933 
     15 C15       -75.8008   31.1181  -73.4872 C.3       11 UNK         0.0166 
     16 S16       -74.3208   30.7975  -72.4702 S.3       11 UNK        -0.2615 
     17 C17       -73.1058   31.9038  -73.2656 C.3       11 UNK        -0.0865 
     18 CA        -72.2306   31.1972  -74.3362 C.3       10 UNK         0.0862 
     19 C         -71.2317   32.2119  -74.9673 C.2       10 UNK         0.5551 
     20 N         -69.9278   32.0834  -74.7542 N.am      10 UNK        -0.7319 
     21 O         -71.6529   33.1363  -75.6582 O.2       10 UNK        -0.5018 
     22 N         -71.6359   29.9545  -73.8146 N.am      10 UNK        -0.4509 
     23 C         -71.0425   29.0036  -74.5465 C.2       10 UNK         0.4899 
     24 O         -70.8333   29.1013  -75.7560 O.2       10 UNK        -0.4839 
     25 CA        -70.5905   27.7309  -73.8105 C.3       9 UNK         0.0222 
     26 CB        -71.0498   27.6497  -72.3385 C.3       9 UNK        -0.1966 
     27 N         -71.1066   26.5692  -74.5310 N.am      9 UNK        -0.4218 
     28 C         -70.3645   25.6797  -75.2014 C.2       9 UNK         0.5020 
     29 O         -69.1337   25.7083  -75.2592 O.2       9 UNK        -0.5274 
     30 CA        -71.1187   24.5479  -75.9183 C.3       8 UNK         0.0270 
     31 CB        -71.5257   23.4541  -74.9170 C.3       8 UNK        -0.1976 
     32 N         -72.2993   25.0092  -76.6534 N.am      8 UNK        -0.4313 
     33 C         -72.2595   25.7437  -77.7751 C.2       8 UNK         0.5041 
     34 O         -71.2166   26.1095  -78.3187 O.2       8 UNK        -0.5577 
     35 CA        -73.6081   26.1185  -78.4140 C.3       7 UNK         0.0284 
     36 CB        -74.1790   24.9427  -79.2237 C.3       7 UNK        -0.1958 
     37 N         -74.5902   26.5526  -77.4217 N.am      7 UNK        -0.4454 
     38 C         -74.5618   27.7348  -76.7918 C.2       7 UNK         0.5089 
     39 O         -73.7675   28.6360  -77.0553 O.2       7 UNK        -0.5125 
     40 CA        -75.5925   27.9477  -75.6715 C.3       6 UNK         0.0408 
     41 CB        -76.8850   28.5633  -76.2320 C.3       6 UNK        -0.1791 
     42 N         -75.9083   26.7132  -74.9512 N.am      6 UNK        -0.4762 
     43 C         -75.0562   26.0631  -74.1461 C.2       6 UNK         0.5007 
     44 O         -73.9064   26.4394  -73.9196 O.2       6 UNK        -0.5032 
     45 CA        -75.5506   24.7355  -73.5383 C.3       5 UNK         0.0783 
     46 C46       -76.3247   24.9467  -72.2135 C.3       11 UNK        -0.0857 
     47 S47       -78.0240   25.6013  -72.4172 S.3       11 UNK        -0.2512 
     48 C48       -78.0198   27.0548  -71.3178 C.3       11 UNK         0.0225 
     49 N         -76.3050   23.9287  -74.5012 N.am      5 UNK        -0.4615 
     50 C         -75.7934   23.3968  -75.6190 C.2       4 UNK         0.5053 
     51 O         -74.6092   23.4863  -75.9372 O.2       4 UNK        -0.5105 
     52 CA        -76.7820   22.7025  -76.5699 C.3       4 UNK         0.0263 
     53 CB        -77.0254   21.2499  -76.1329 C.3       4 UNK        -0.1981 
     54 N         -78.0631   23.4071  -76.6665 N.am      4 UNK        -0.4224 
     55 C         -78.2223   24.6672  -77.0901 C.2       3 UNK         0.4895 
     56 O         -77.2949   25.3619  -77.5037 O.2       3 UNK        -0.5091 
     57 CA        -79.6286   25.2847  -76.9940 C.3       3 UNK         0.0250 
     58 CB        -80.4354   25.0288  -78.2811 C.3       3 UNK        -0.1996 
     59 N         -80.3882   24.9072  -75.7903 N.am      3 UNK        -0.4254 
     60 C         -80.8964   23.7133  -75.4454 C.2       2 UNK         0.5004 
     61 O         -80.7518   22.6903  -76.1152 O.2       2 UNK        -0.5226 
     62 CA        -81.6544   23.6243  -74.1080 C.3       2 UNK         0.0269 
     63 CB        -80.8589   22.7829  -73.0954 C.3       2 UNK        -0.1926 
     64 N         -81.9506   24.9292  -73.5080 N.am      2 UNK        -0.4687 
     65 C         -82.9313   25.7556  -73.9036 C.2       1 UNK         0.5165 
     66 O         -83.6964   25.5074  -74.8359 O.2       1 UNK        -0.5079 
     67 H67       -83.1904   26.7163  -68.6675 H         1 UNK         0.0900 
     68 H68       -81.6092   26.9995  -69.3978 H         1 UNK         0.0900 
     69 H69       -82.1592   25.3495  -69.0992 H         1 UNK         0.0900 
     70 H70       -81.7985   27.6105  -71.5325 H         1 UNK         0.2959 
     71 H71       -84.1332   27.3167  -73.0873 H         1 UNK         0.1079 
     72 H72       -81.3726   27.9397  -74.2493 H         1 UNK         0.0837 
     73 H73       -82.9239   28.3907  -74.8890 H         1 UNK         0.0837 
     74 H74       -80.8323   31.6439  -73.5414 H         1 UNK         0.0685 
     75 H75       -80.8147   30.4824  -74.8436 H         1 UNK         0.0685 
     76 H76       -80.2183   28.2612  -72.2634 H         1 UNK         0.1434 
     77 H77       -75.9872   28.6826  -72.1133 H         1 UNK         0.1329 
     78 H78       -78.3606   31.6663  -74.0900 H         1 UNK         0.1335 
     79 H79       -76.0452   32.1781  -73.4007 H         1 UNK         0.0680 
     80 H80       -75.5578   30.9398  -74.5351 H         1 UNK         0.0680 
     81 H81       -73.6309   32.7567  -73.7007 H         1 UNK         0.1032 
     82 H82       -72.4725   32.3173  -72.4783 H         1 UNK         0.1032 
     83 H83       -72.8958   30.8950  -75.1478 H         1 UNK         0.0461 
     84 H84       -69.2898   32.7448  -75.1680 H         1 UNK         0.3453 
     85 H85       -69.5769   31.3223  -74.1956 H         1 UNK         0.3453 
     86 H86       -71.7717   29.7895  -72.8285 H         1 UNK         0.2984 
     87 H87       -69.4990   27.7358  -73.8194 H         1 UNK         0.0554 
     88 H88       -70.7251   26.7148  -71.8814 H         1 UNK         0.0847 
     89 H89       -72.1358   27.6982  -72.2439 H         1 UNK         0.0847 
     90 H90       -70.6221   28.4560  -71.7413 H         1 UNK         0.0847 
     91 H91       -72.1201   26.4739  -74.5365 H         1 UNK         0.3141 
     92 H92       -70.4321   24.1008  -76.6404 H         1 UNK         0.0743 
     93 H93       -72.2450   23.8238  -74.1854 H         1 UNK         0.0784 
     94 H94       -71.9744   22.5999  -75.4246 H         1 UNK         0.0784 
     95 H95       -70.6591   23.0852  -74.3667 H         1 UNK         0.0784 
     96 H96       -73.2010   24.6732  -76.3220 H         1 UNK         0.3213 
     97 H97       -73.4314   26.9475  -79.1031 H         1 UNK         0.0855 
     98 H98       -74.3776   24.0742  -78.5957 H         1 UNK         0.0814 
     99 H99       -73.4800   24.6301  -80.0006 H         1 UNK         0.0814 
    100 H100      -75.1118   25.2174  -79.7167 H         1 UNK         0.0814 
    101 H101      -75.3484   25.9137  -77.2051 H         1 UNK         0.3105 
    102 H102      -75.1595   28.6442  -74.9519 H         1 UNK         0.0547 
    103 H103      -76.6946   29.5590  -76.6338 H         1 UNK         0.0837 
    104 H104      -77.3056   27.9643  -77.0395 H         1 UNK         0.0837 
    105 H105      -77.6480   28.6642  -75.4610 H         1 UNK         0.0837 
    106 H106      -76.8250   26.3183  -75.0992 H         1 UNK         0.3020 
    107 H107      -74.6497   24.1677  -73.2934 H         1 UNK         0.1245 
    108 H108      -75.7440   25.5781  -71.5392 H         1 UNK         0.0781 
    109 H109      -76.4133   23.9888  -71.6989 H         1 UNK         0.0781 
    110 H110      -78.8783   26.9820  -70.6484 H         1 UNK         0.0836 
    111 H111      -77.1455   27.0608  -70.6665 H         1 UNK         0.0836 
    112 H112      -77.2914   23.8232  -74.3158 H         1 UNK         0.3022 
    113 H113      -76.3329   22.6930  -77.5651 H         1 UNK         0.0747 
    114 H114      -77.6585   20.7228  -76.8470 H         1 UNK         0.0793 
    115 H115      -76.0856   20.6997  -76.0666 H         1 UNK         0.0793 
    116 H116      -77.5064   21.1956  -75.1554 H         1 UNK         0.0793 
    117 H117      -78.9023   22.9042  -76.3885 H         1 UNK         0.3047 
    118 H118      -79.4815   26.3633  -76.9157 H         1 UNK         0.0822 
    119 H119      -81.4060   25.5235  -78.2450 H         1 UNK         0.0807 
    120 H120      -80.6068   23.9659  -78.4538 H         1 UNK         0.0807 
    121 H121      -79.9065   25.4156  -79.1533 H         1 UNK         0.0807 
    122 H122      -80.5327   25.6552  -75.1281 H         1 UNK         0.2946 
    123 H123      -82.5987   23.1138  -74.3114 H         1 UNK         0.1144 
    124 H124      -81.4105   22.6587  -72.1633 H         1 UNK         0.0793 
    125 H125      -79.8962   23.2360  -72.8579 H         1 UNK         0.0793 
    126 H126      -80.6602   21.7837  -73.4859 H         1 UNK         0.0793 
    127 H127      -81.3790   25.2106  -72.7241 H         1 UNK         0.2896 
@<TRIPOS>BOND
     1    1    2 1    
     2    1   67 1    
     3    1   68 1    
     4    1   69 1    
     5    2    3 2    
     6    2    4 am   BACKBONE|DICT|INTERRES
     7    4    5 1    
     8    4   70 1    
     9    5    6 1    
    10    5   65 1    
    11    5   71 1    
    12    6    7 1    
    13    6   72 1    
    14    6   73 1    
    15    7    8 1    
    16    8    9 1    
    17    8   74 1    
    18    8   75 1    
    19    9   10 ar   
    20    9   14 ar   
    21   10   11 ar   
    22   10   76 1    
    23   11   12 ar   
    24   11   48 1    
    25   12   13 ar   
    26   12   77 1    
    27   13   14 ar   
    28   13   15 1    
    29   14   78 1    
    30   15   16 1    
    31   15   79 1    
    32   15   80 1    
    33   16   17 1    
    34   17   18 1    
    35   17   81 1    
    36   17   82 1    
    37   18   19 1    
    38   18   22 1    
    39   18   83 1    
    40   19   20 am   BACKBONE|DICT|INTERRES
    41   19   21 2    
    42   20   84 1    
    43   20   85 1    
    44   22   23 am   BACKBONE|DICT|INTERRES
    45   22   86 1    
    46   23   24 2    
    47   23   25 1    
    48   25   26 1    
    49   25   27 1    
    50   25   87 1    
    51   26   88 1    
    52   26   89 1    
    53   26   90 1    
    54   27   28 am   BACKBONE|DICT|INTERRES
    55   27   91 1    
    56   28   29 2    
    57   28   30 1    
    58   30   31 1    
    59   30   32 1    
    60   30   92 1    
    61   31   93 1    
    62   31   94 1    
    63   31   95 1    
    64   32   33 am   BACKBONE|DICT|INTERRES
    65   32   96 1    
    66   33   34 2    
    67   33   35 1    
    68   35   36 1    
    69   35   37 1    
    70   35   97 1    
    71   36   98 1    
    72   36   99 1    
    73   36  100 1    
    74   37   38 am   BACKBONE|DICT|INTERRES
    75   37  101 1    
    76   38   39 2    
    77   38   40 1    
    78   40   41 1    
    79   40   42 1    
    80   40  102 1    
    81   41  103 1    
    82   41  104 1    
    83   41  105 1    
    84   42   43 am   BACKBONE|DICT|INTERRES
    85   42  106 1    
    86   43   44 2    
    87   43   45 1    
    88   45   46 1    
    89   45   49 1    
    90   45  107 1    
    91   46   47 1    
    92   46  108 1    
    93   46  109 1    
    94   47   48 1    
    95   48  110 1    
    96   48  111 1    
    97   49   50 am   BACKBONE|DICT|INTERRES
    98   49  112 1    
    99   50   51 2    
   100   50   52 1    
   101   52   53 1    
   102   52   54 1    
   103   52  113 1    
   104   53  114 1    
   105   53  115 1    
   106   53  116 1    
   107   54   55 am   BACKBONE|DICT|INTERRES
   108   54  117 1    
   109   55   56 2    
   110   55   57 1    
   111   57   58 1    
   112   57   59 1    
   113   57  118 1    
   114   58  119 1    
   115   58  120 1    
   116   58  121 1    
   117   59   60 am   BACKBONE|DICT|INTERRES
   118   59  122 1    
   119   60   61 2    
   120   60   62 1    
   121   62   63 1    
   122   62   64 1    
   123   62  123 1    
   124   63  124 1    
   125   63  125 1    
   126   63  126 1    
   127   64   65 am   BACKBONE|DICT|INTERRES
   128   64  127 1    
   129   65   66 2    
@<TRIPOS>SUBSTRUCTURE
     1 UNK         1 GROUP             0       ****    0 ROOT    
