@<TRIPOS>MOLECULE
3R135
127   129    1
SMALL
USER_CHARGES


@<TRIPOS>ATOM
      1 CA        -85.3207   30.3654  -74.6409 C.3       0 UNK        -0.1998 
      2 C         -83.8971   29.9903  -75.0254 C.2       0 UNK         0.4909 
      3 O         -83.2037   30.7877  -75.6582 O.2       0 UNK        -0.5240 
      4 N         -83.4592   28.7846  -74.6509 N.am      1 UNK        -0.4739 
      5 CA        -82.1264   28.2531  -74.9319 C.3       1 UNK         0.0864 
      6 C6        -81.0130   28.8228  -74.0051 C.3       11 UNK        -0.0881 
      7 S7        -81.3574   28.7004  -72.2152 S.3       11 UNK        -0.2682 
      8 C8        -80.0657   29.7947  -71.5472 C.3       11 UNK         0.0289 
      9 C9        -78.6747   29.1997  -71.7153 C.ar      11 UNK        -0.0687 
     10 C10       -78.2730   28.1311  -70.9095 C.ar      11 UNK        -0.0823 
     11 C11       -76.9939   27.5817  -71.0362 C.ar      11 UNK        -0.0830 
     12 C12       -76.1106   28.1208  -71.9785 C.ar      11 UNK        -0.1021 
     13 C13       -76.4970   29.1927  -72.7886 C.ar      11 UNK        -0.0753 
     14 C14       -77.7833   29.7250  -72.6563 C.ar      11 UNK        -0.0933 
     15 C15       -75.5293   29.7725  -73.8110 C.3       11 UNK         0.0166 
     16 S16       -74.6577   31.2365  -73.1676 S.3       11 UNK        -0.2615 
     17 C17       -73.4288   30.4808  -72.0465 C.3       11 UNK        -0.0865 
     18 CA        -71.9629   30.8255  -72.4191 C.3       10 UNK         0.0862 
     19 C         -70.9857   30.2567  -71.3469 C.2       10 UNK         0.5551 
     20 N         -70.1191   29.3045  -71.6708 N.am      10 UNK        -0.7319 
     21 O         -71.0169   30.6919  -70.1985 O.2       10 UNK        -0.5018 
     22 N         -71.6492   30.4550  -73.8102 N.am      10 UNK        -0.4509 
     23 C         -70.5858   30.8707  -74.5074 C.2       10 UNK         0.4899 
     24 O         -69.7323   31.6364  -74.0563 O.2       10 UNK        -0.4839 
     25 CA        -70.4520   30.3243  -75.9448 C.3       9 UNK         0.0222 
     26 CB        -69.1753   30.8196  -76.6509 C.3       9 UNK        -0.1966 
     27 N         -70.4812   28.8575  -75.9901 N.am      9 UNK        -0.4218 
     28 C         -71.5851   28.1051  -75.9042 C.2       9 UNK         0.5020 
     29 O         -72.7147   28.5727  -75.7438 O.2       9 UNK        -0.5274 
     30 CA        -71.3838   26.5843  -75.9376 C.3       8 UNK         0.0270 
     31 CB        -71.1878   26.0420  -74.5117 C.3       8 UNK        -0.1976 
     32 N         -72.5535   25.9451  -76.5390 N.am      8 UNK        -0.4313 
     33 C         -72.6853   25.6890  -77.8489 C.2       8 UNK         0.5041 
     34 O         -71.7845   25.8698  -78.6702 O.2       8 UNK        -0.5577 
     35 CA        -74.0364   25.1345  -78.3452 C.3       7 UNK         0.0284 
     36 CB        -73.9679   23.6055  -78.4906 C.3       7 UNK        -0.1958 
     37 N         -75.1632   25.4769  -77.4786 N.am      7 UNK        -0.4454 
     38 C         -75.6369   26.7131  -77.2733 C.2       7 UNK         0.5089 
     39 O         -75.2776   27.6982  -77.9182 O.2       7 UNK        -0.5125 
     40 CA        -76.6767   26.8854  -76.1495 C.3       6 UNK         0.0408 
     41 CB        -78.0784   27.0963  -76.7415 C.3       6 UNK        -0.1791 
     42 N         -76.7250   25.7763  -75.1898 N.am      6 UNK        -0.4762 
     43 C         -75.7256   25.3737  -74.3897 C.2       6 UNK         0.5007 
     44 O         -74.6079   25.8880  -74.3879 O.2       6 UNK        -0.5032 
     45 CA        -75.9982   24.1434  -73.5045 C.3       5 UNK         0.0783 
     46 C46       -76.7339   24.5087  -72.1923 C.3       11 UNK        -0.0857 
     47 S47       -75.5800   25.1423  -70.9308 S.3       11 UNK        -0.2512 
     48 C48       -76.5798   26.4334  -70.1189 C.3       11 UNK         0.0225 
     49 N         -76.7341   23.1299  -74.2614 N.am      5 UNK        -0.4615 
     50 C         -76.1659   22.1367  -74.9564 C.2       4 UNK         0.5053 
     51 O         -74.9507   21.9498  -75.0132 O.2       4 UNK        -0.5105 
     52 CA        -77.1050   21.1818  -75.7158 C.3       4 UNK         0.0263 
     53 CB        -77.4245   19.9496  -74.8541 C.3       4 UNK        -0.1981 
     54 N         -78.3583   21.8086  -76.1440 N.am      4 UNK        -0.4224 
     55 C         -78.4462   22.7504  -77.0929 C.2       3 UNK         0.4895 
     56 O         -77.4812   23.1797  -77.7252 O.2       3 UNK        -0.5091 
     57 CA        -79.8440   23.3356  -77.3635 C.3       3 UNK         0.0250 
     58 CB        -80.5994   22.4633  -78.3791 C.3       3 UNK        -0.1996 
     59 N         -80.6905   23.5490  -76.1794 N.am      3 UNK        -0.4254 
     60 C         -80.3354   24.2100  -75.0685 C.2       2 UNK         0.5004 
     61 O         -79.1888   24.5846  -74.8236 O.2       2 UNK        -0.5226 
     62 CA        -81.4438   24.5561  -74.0667 C.3       2 UNK         0.0269 
     63 CB        -81.0824   24.0669  -72.6536 C.3       2 UNK        -0.1926 
     64 N         -81.6136   26.0090  -74.0442 N.am      2 UNK        -0.4687 
     65 C         -82.2197   26.7187  -75.0043 C.2       1 UNK         0.5165 
     66 O         -82.8404   26.2018  -75.9354 O.2       1 UNK        -0.5079 
     67 H67       -85.9095   30.5699  -75.5347 H         1 UNK         0.0900 
     68 H68       -85.8155   29.5704  -74.0831 H         1 UNK         0.0900 
     69 H69       -85.3175   31.2620  -74.0217 H         1 UNK         0.0900 
     70 H70       -84.0752   28.1540  -74.1555 H         1 UNK         0.2959 
     71 H71       -81.8636   28.5506  -75.9501 H         1 UNK         0.1079 
     72 H72       -80.8674   29.8776  -74.2433 H         1 UNK         0.0837 
     73 H73       -80.0537   28.3464  -74.2143 H         1 UNK         0.0837 
     74 H74       -80.1333   30.7734  -72.0250 H         1 UNK         0.0685 
     75 H75       -80.2595   29.9602  -70.4865 H         1 UNK         0.0685 
     76 H76       -78.9631   27.7307  -70.1791 H         1 UNK         0.1434 
     77 H77       -75.1199   27.7018  -72.0853 H         1 UNK         0.1329 
     78 H78       -78.0850   30.5551  -73.2802 H         1 UNK         0.1335 
     79 H79       -76.0770   30.0611  -74.7093 H         1 UNK         0.0680 
     80 H80       -74.8062   29.0185  -74.1260 H         1 UNK         0.0680 
     81 H81       -73.5564   29.3984  -72.0282 H         1 UNK         0.1032 
     82 H82       -73.6576   30.8248  -71.0358 H         1 UNK         0.1032 
     83 H83       -71.8629   31.9110  -72.3592 H         1 UNK         0.0461 
     84 H84       -70.0788   28.9536  -72.6131 H         1 UNK         0.3453 
     85 H85       -69.4906   28.9477  -70.9684 H         1 UNK         0.3453 
     86 H86       -72.2989   29.8275  -74.2744 H         1 UNK         0.2984 
     87 H87       -71.3057   30.7062  -76.5089 H         1 UNK         0.0554 
     88 H88       -69.1441   31.9097  -76.6838 H         1 UNK         0.0847 
     89 H89       -69.1288   30.4676  -77.6816 H         1 UNK         0.0847 
     90 H90       -68.2725   30.4833  -76.1394 H         1 UNK         0.0847 
     91 H91       -69.5870   28.3951  -76.0754 H         1 UNK         0.3141 
     92 H92       -70.4919   26.3509  -76.5232 H         1 UNK         0.0743 
     93 H93       -72.0208   26.3063  -73.8588 H         1 UNK         0.0784 
     94 H94       -71.0937   24.9560  -74.5098 H         1 UNK         0.0784 
     95 H95       -70.2812   26.4465  -74.0602 H         1 UNK         0.0784 
     96 H96       -73.3646   25.8594  -75.9321 H         1 UNK         0.3213 
     97 H97       -74.2271   25.5672  -79.3295 H         1 UNK         0.0855 
     98 H98       -73.8037   23.1157  -77.5296 H         1 UNK         0.0814 
     99 H99       -73.1510   23.3118  -79.1513 H         1 UNK         0.0814 
    100 H100      -74.8883   23.2057  -78.9171 H         1 UNK         0.0814 
    101 H101      -75.5778   24.7233  -76.9477 H         1 UNK         0.3105 
    102 H102      -76.4040   27.7817  -75.5932 H         1 UNK         0.0547 
    103 H103      -78.3941   26.2369  -77.3324 H         1 UNK         0.0837 
    104 H104      -78.0998   27.9688  -77.3956 H         1 UNK         0.0837 
    105 H105      -78.8206   27.2567  -75.9606 H         1 UNK         0.0837 
    106 H106      -77.6234   25.2997  -75.1060 H         1 UNK         0.3020 
    107 H107      -75.0241   23.7261  -73.2365 H         1 UNK         0.1245 
    108 H108      -77.2047   23.6213  -71.7660 H         1 UNK         0.0781 
    109 H109      -77.5460   25.2155  -72.3746 H         1 UNK         0.0781 
    110 H110      -76.0059   26.8460  -69.2883 H         1 UNK         0.0836 
    111 H111      -77.4581   25.9578  -69.6792 H         1 UNK         0.0836 
    112 H112      -77.7353   23.2716  -74.3348 H         1 UNK         0.3022 
    113 H113      -76.5747   20.8451  -76.6094 H         1 UNK         0.0747 
    114 H114      -78.0209   19.2227  -75.4058 H         1 UNK         0.0793 
    115 H115      -76.5093   19.4443  -74.5419 H         1 UNK         0.0793 
    116 H116      -77.9723   20.2190  -73.9501 H         1 UNK         0.0793 
    117 H117      -79.2036   21.5205  -75.6729 H         1 UNK         0.3047 
    118 H118      -79.6923   24.3158  -77.8182 H         1 UNK         0.0822 
    119 H119      -81.5309   22.9346  -78.6932 H         1 UNK         0.0807 
    120 H120      -80.8404   21.4817  -77.9691 H         1 UNK         0.0807 
    121 H121      -80.0023   22.3033  -79.2784 H         1 UNK         0.0807 
    122 H122      -81.6617   23.2920  -76.2855 H         1 UNK         0.2946 
    123 H123      -82.3805   24.0841  -74.3722 H         1 UNK         0.1144 
    124 H124      -80.9359   22.9861  -72.6402 H         1 UNK         0.0793 
    125 H125      -81.8757   24.2954  -71.9418 H         1 UNK         0.0793 
    126 H126      -80.1631   24.5254  -72.2861 H         1 UNK         0.0793 
    127 H127      -81.1329   26.5140  -73.3112 H         1 UNK         0.2896 
@<TRIPOS>BOND
     1    1    2 1    
     2    1   67 1    
     3    1   68 1    
     4    1   69 1    
     5    2    3 2    
     6    2    4 am   BACKBONE|DICT|INTERRES
     7    4    5 1    
     8    4   70 1    
     9    5    6 1    
    10    5   65 1    
    11    5   71 1    
    12    6    7 1    
    13    6   72 1    
    14    6   73 1    
    15    7    8 1    
    16    8    9 1    
    17    8   74 1    
    18    8   75 1    
    19    9   10 ar   
    20    9   14 ar   
    21   10   11 ar   
    22   10   76 1    
    23   11   12 ar   
    24   11   48 1    
    25   12   13 ar   
    26   12   77 1    
    27   13   14 ar   
    28   13   15 1    
    29   14   78 1    
    30   15   16 1    
    31   15   79 1    
    32   15   80 1    
    33   16   17 1    
    34   17   18 1    
    35   17   81 1    
    36   17   82 1    
    37   18   19 1    
    38   18   22 1    
    39   18   83 1    
    40   19   20 am   BACKBONE|DICT|INTERRES
    41   19   21 2    
    42   20   84 1    
    43   20   85 1    
    44   22   23 am   BACKBONE|DICT|INTERRES
    45   22   86 1    
    46   23   24 2    
    47   23   25 1    
    48   25   26 1    
    49   25   27 1    
    50   25   87 1    
    51   26   88 1    
    52   26   89 1    
    53   26   90 1    
    54   27   28 am   BACKBONE|DICT|INTERRES
    55   27   91 1    
    56   28   29 2    
    57   28   30 1    
    58   30   31 1    
    59   30   32 1    
    60   30   92 1    
    61   31   93 1    
    62   31   94 1    
    63   31   95 1    
    64   32   33 am   BACKBONE|DICT|INTERRES
    65   32   96 1    
    66   33   34 2    
    67   33   35 1    
    68   35   36 1    
    69   35   37 1    
    70   35   97 1    
    71   36   98 1    
    72   36   99 1    
    73   36  100 1    
    74   37   38 am   BACKBONE|DICT|INTERRES
    75   37  101 1    
    76   38   39 2    
    77   38   40 1    
    78   40   41 1    
    79   40   42 1    
    80   40  102 1    
    81   41  103 1    
    82   41  104 1    
    83   41  105 1    
    84   42   43 am   BACKBONE|DICT|INTERRES
    85   42  106 1    
    86   43   44 2    
    87   43   45 1    
    88   45   46 1    
    89   45   49 1    
    90   45  107 1    
    91   46   47 1    
    92   46  108 1    
    93   46  109 1    
    94   47   48 1    
    95   48  110 1    
    96   48  111 1    
    97   49   50 am   BACKBONE|DICT|INTERRES
    98   49  112 1    
    99   50   51 2    
   100   50   52 1    
   101   52   53 1    
   102   52   54 1    
   103   52  113 1    
   104   53  114 1    
   105   53  115 1    
   106   53  116 1    
   107   54   55 am   BACKBONE|DICT|INTERRES
   108   54  117 1    
   109   55   56 2    
   110   55   57 1    
   111   57   58 1    
   112   57   59 1    
   113   57  118 1    
   114   58  119 1    
   115   58  120 1    
   116   58  121 1    
   117   59   60 am   BACKBONE|DICT|INTERRES
   118   59  122 1    
   119   60   61 2    
   120   60   62 1    
   121   62   63 1    
   122   62   64 1    
   123   62  123 1    
   124   63  124 1    
   125   63  125 1    
   126   63  126 1    
   127   64   65 am   BACKBONE|DICT|INTERRES
   128   64  127 1    
   129   65   66 2    
@<TRIPOS>SUBSTRUCTURE
     1 UNK         1 GROUP             0       ****    0 ROOT    
