@<TRIPOS>MOLECULE
3R135
127   129    1
SMALL
USER_CHARGES


@<TRIPOS>ATOM
      1 CA        -83.1688   27.4512  -70.4443 C.3       0 UNK        -0.1998 
      2 C         -83.3338   27.5359  -71.9541 C.2       0 UNK         0.4909 
      3 O         -84.3315   27.0537  -72.4908 O.2       0 UNK        -0.5240 
      4 N         -82.3603   28.1455  -72.6430 N.am      1 UNK        -0.4739 
      5 CA        -82.3243   28.2876  -74.1052 C.3       1 UNK         0.0864 
      6 C6        -81.4086   29.4591  -74.5485 C.3       11 UNK        -0.0881 
      7 S7        -79.6652   29.2890  -74.0333 S.3       11 UNK        -0.2682 
      8 C8        -79.6297   30.2792  -72.5010 C.3       11 UNK         0.0289 
      9 C9        -78.3634   29.9974  -71.7066 C.ar      11 UNK        -0.0687 
     10 C10       -78.0992   28.6987  -71.2643 C.ar      11 UNK        -0.0823 
     11 C11       -76.8877   28.3870  -70.6382 C.ar      11 UNK        -0.0830 
     12 C12       -75.9846   29.4178  -70.3608 C.ar      11 UNK        -0.1021 
     13 C13       -76.2571   30.7326  -70.7532 C.ar      11 UNK        -0.0753 
     14 C14       -77.4429   31.0143  -71.4394 C.ar      11 UNK        -0.0933 
     15 C15       -75.2667   31.8475  -70.4434 C.3       11 UNK         0.0166 
     16 S16       -73.6531   31.5989  -71.2519 S.3       11 UNK        -0.2615 
     17 C17       -74.0987   31.6531  -73.0233 C.3       11 UNK        -0.0865 
     18 CA        -74.0873   30.2545  -73.7022 C.3       10 UNK         0.0862 
     19 C         -74.5347   30.3536  -75.1904 C.2       10 UNK         0.5551 
     20 N         -73.7844   29.8314  -76.1544 N.am      10 UNK        -0.7319 
     21 O         -75.5855   30.9196  -75.4794 O.2       10 UNK        -0.5018 
     22 N         -72.7832   29.5913  -73.5509 N.am      10 UNK        -0.4509 
     23 C         -72.5734   28.4029  -72.9783 C.2       10 UNK         0.4899 
     24 O         -73.4388   27.7245  -72.4222 O.2       10 UNK        -0.4839 
     25 CA        -71.1314   27.8746  -73.0602 C.3       9 UNK         0.0222 
     26 CB        -70.6722   27.2784  -71.7178 C.3       9 UNK        -0.1966 
     27 N         -70.9994   26.8632  -74.1096 N.am      9 UNK        -0.4218 
     28 C         -71.1241   27.0831  -75.4264 C.2       9 UNK         0.5020 
     29 O         -71.3087   28.1993  -75.9179 O.2       9 UNK        -0.5274 
     30 CA        -71.0102   25.8663  -76.3592 C.3       8 UNK         0.0270 
     31 CB        -70.7774   24.5192  -75.6388 C.3       8 UNK        -0.1976 
     32 N         -72.2142   25.7746  -77.1835 N.am      8 UNK        -0.4313 
     33 C         -72.2443   25.3423  -78.4509 C.2       8 UNK         0.5041 
     34 O         -71.2299   25.0333  -79.0798 O.2       8 UNK        -0.5577 
     35 CA        -73.6111   25.1831  -79.1493 C.3       7 UNK         0.0284 
     36 CB        -73.8830   23.7003  -79.4568 C.3       7 UNK        -0.1958 
     37 N         -74.7436   25.7163  -78.3901 N.am      7 UNK        -0.4454 
     38 C         -75.0698   27.0127  -78.3136 C.2       7 UNK         0.5089 
     39 O         -74.4755   27.9059  -78.9181 O.2       7 UNK        -0.5125 
     40 CA        -76.2437   27.3832  -77.3872 C.3       6 UNK         0.0408 
     41 CB        -77.5686   27.3567  -78.1625 C.3       6 UNK        -0.1791 
     42 N         -76.3662   26.5561  -76.1800 N.am      6 UNK        -0.4762 
     43 C         -75.3986   26.3648  -75.2686 C.2       6 UNK         0.5007 
     44 O         -74.2426   26.7508  -75.4099 O.2       6 UNK        -0.5032 
     45 CA        -75.7801   25.5904  -73.9988 C.3       5 UNK         0.0783 
     46 C46       -76.7164   26.4486  -73.1221 C.3       11 UNK        -0.0857 
     47 S47       -77.1200   25.6926  -71.5086 S.3       11 UNK        -0.2512 
     48 C48       -76.5041   26.9413  -70.3133 C.3       11 UNK         0.0225 
     49 N         -76.3576   24.3027  -74.3780 N.am      5 UNK        -0.4615 
     50 C         -75.6274   23.2397  -74.7411 C.2       4 UNK         0.5053 
     51 O         -74.4006   23.1886  -74.6538 O.2       4 UNK        -0.5105 
     52 CA        -76.3855   22.0328  -75.3219 C.3       4 UNK         0.0263 
     53 CB        -76.7375   21.0339  -74.2079 C.3       4 UNK        -0.1981 
     54 N         -77.6057   22.4027  -76.0436 N.am      4 UNK        -0.4224 
     55 C         -77.6481   23.1522  -77.1556 C.2       3 UNK         0.4895 
     56 O         -76.6521   23.5866  -77.7329 O.2       3 UNK        -0.5091 
     57 CA        -79.0463   23.5206  -77.6811 C.3       3 UNK         0.0250 
     58 CB        -79.5621   22.4391  -78.6434 C.3       3 UNK        -0.1996 
     59 N         -80.0296   23.7417  -76.6142 N.am      3 UNK        -0.4254 
     60 C         -79.9301   24.6836  -75.6651 C.2       2 UNK         0.5004 
     61 O         -78.9860   25.4723  -75.5749 O.2       2 UNK        -0.5226 
     62 CA        -81.0234   24.6761  -74.5870 C.3       2 UNK         0.0269 
     63 CB        -80.5684   23.8297  -73.3862 C.3       2 UNK        -0.1926 
     64 N         -81.3557   26.0195  -74.1141 N.am      2 UNK        -0.4687 
     65 C         -81.9911   26.9606  -74.8283 C.2       1 UNK         0.5165 
     66 O         -82.3532   26.8012  -75.9954 O.2       1 UNK        -0.5079 
     67 H67       -82.2434   27.9180  -70.1072 H         1 UNK         0.0900 
     68 H68       -83.1580   26.4089  -70.1264 H         1 UNK         0.0900 
     69 H69       -84.0005   27.9504  -69.9478 H         1 UNK         0.0900 
     70 H70       -81.5609   28.5181  -72.1531 H         1 UNK         0.2959 
     71 H71       -83.3365   28.5451  -74.4261 H         1 UNK         0.1079 
     72 H72       -81.4313   29.5620  -75.6351 H         1 UNK         0.0837 
     73 H73       -81.8029   30.4005  -74.1627 H         1 UNK         0.0837 
     74 H74       -80.4941   30.0514  -71.8779 H         1 UNK         0.0685 
     75 H75       -79.7026   31.3364  -72.7610 H         1 UNK         0.0685 
     76 H76       -78.8109   27.9145  -71.4803 H         1 UNK         0.1434 
     77 H77       -75.0473   29.1947  -69.8690 H         1 UNK         0.1329 
     78 H78       -77.6462   32.0233  -71.7713 H         1 UNK         0.1335 
     79 H79       -75.6656   32.8198  -70.7370 H         1 UNK         0.0680 
     80 H80       -75.1140   31.8933  -69.3643 H         1 UNK         0.0680 
     81 H81       -73.3965   32.3207  -73.5256 H         1 UNK         0.1032 
     82 H82       -75.0795   32.1208  -73.1281 H         1 UNK         0.1032 
     83 H83       -74.8560   29.6500  -73.2175 H         1 UNK         0.0461 
     84 H84       -74.0928   29.8965  -77.1109 H         1 UNK         0.3453 
     85 H85       -72.9537   29.2899  -75.9363 H         1 UNK         0.3453 
     86 H86       -72.0112   30.0413  -74.0214 H         1 UNK         0.2984 
     87 H87       -70.4633   28.7042  -73.3015 H         1 UNK         0.0554 
     88 H88       -69.6265   26.9728  -71.7547 H         1 UNK         0.0847 
     89 H89       -71.2670   26.4091  -71.4339 H         1 UNK         0.0847 
     90 H90       -70.7669   28.0117  -70.9157 H         1 UNK         0.0847 
     91 H91       -70.8850   25.9093  -73.8007 H         1 UNK         0.3141 
     92 H92       -70.1471   26.0649  -76.9978 H         1 UNK         0.0743 
     93 H93       -71.6160   24.2536  -74.9927 H         1 UNK         0.0784 
     94 H94       -70.6539   23.7098  -76.3587 H         1 UNK         0.0784 
     95 H95       -69.8708   24.5393  -75.0326 H         1 UNK         0.0784 
     96 H96       -73.0720   26.0894  -76.7315 H         1 UNK         0.3213 
     97 H97       -73.5493   25.7189  -80.0990 H         1 UNK         0.0855 
     98 H98       -73.9485   23.1072  -78.5435 H         1 UNK         0.0814 
     99 H99       -73.0883   23.2719  -80.0690 H         1 UNK         0.0814 
    100 H100      -74.8167   23.5732  -80.0051 H         1 UNK         0.0814 
    101 H101      -75.3278   25.0396  -77.9052 H         1 UNK         0.3105 
    102 H102      -76.0807   28.4065  -77.0468 H         1 UNK         0.0547 
    103 H103      -77.5436   28.0580  -78.9976 H         1 UNK         0.0837 
    104 H104      -77.7690   26.3691  -78.5754 H         1 UNK         0.0837 
    105 H105      -78.4102   27.6363  -77.5279 H         1 UNK         0.0837 
    106 H106      -77.2924   26.1801  -75.9843 H         1 UNK         0.3020 
    107 H107      -74.8609   25.4186  -73.4326 H         1 UNK         0.1245 
    108 H108      -77.6567   26.6584  -73.6347 H         1 UNK         0.0781 
    109 H109      -76.2456   27.4192  -72.9599 H         1 UNK         0.0781 
    110 H110      -75.4172   26.8501  -70.2727 H         1 UNK         0.0836 
    111 H111      -76.8742   26.6917  -69.3184 H         1 UNK         0.0836 
    112 H112      -77.3579   24.2892  -74.5202 H         1 UNK         0.3022 
    113 H113      -75.7185   21.5380  -76.0312 H         1 UNK         0.0747 
    114 H114      -77.2006   20.1336  -74.6124 H         1 UNK         0.0793 
    115 H115      -75.8422   20.7208  -73.6687 H         1 UNK         0.0793 
    116 H116      -77.4224   21.4671  -73.4776 H         1 UNK         0.0793 
    117 H117      -78.4797   22.0880  -75.6493 H         1 UNK         0.3047 
    118 H118      -78.9544   24.4525  -78.2396 H         1 UNK         0.0822 
    119 H119      -78.8548   22.2733  -79.4575 H         1 UNK         0.0807 
    120 H120      -80.5103   22.7298  -79.0962 H         1 UNK         0.0807 
    121 H121      -79.7087   21.4829  -78.1395 H         1 UNK         0.0807 
    122 H122      -80.8307   23.1263  -76.6083 H         1 UNK         0.2946 
    123 H123      -81.9306   24.2360  -75.0072 H         1 UNK         0.1144 
    124 H124      -80.3439   22.8057  -73.6873 H         1 UNK         0.0793 
    125 H125      -81.3439   23.7764  -72.6217 H         1 UNK         0.0793 
    126 H126      -79.6689   24.2380  -72.9226 H         1 UNK         0.0793 
    127 H127      -81.0717   26.2539  -73.1753 H         1 UNK         0.2896 
@<TRIPOS>BOND
     1    1    2 1    
     2    1   67 1    
     3    1   68 1    
     4    1   69 1    
     5    2    3 2    
     6    2    4 am   BACKBONE|DICT|INTERRES
     7    4    5 1    
     8    4   70 1    
     9    5    6 1    
    10    5   65 1    
    11    5   71 1    
    12    6    7 1    
    13    6   72 1    
    14    6   73 1    
    15    7    8 1    
    16    8    9 1    
    17    8   74 1    
    18    8   75 1    
    19    9   10 ar   
    20    9   14 ar   
    21   10   11 ar   
    22   10   76 1    
    23   11   12 ar   
    24   11   48 1    
    25   12   13 ar   
    26   12   77 1    
    27   13   14 ar   
    28   13   15 1    
    29   14   78 1    
    30   15   16 1    
    31   15   79 1    
    32   15   80 1    
    33   16   17 1    
    34   17   18 1    
    35   17   81 1    
    36   17   82 1    
    37   18   19 1    
    38   18   22 1    
    39   18   83 1    
    40   19   20 am   BACKBONE|DICT|INTERRES
    41   19   21 2    
    42   20   84 1    
    43   20   85 1    
    44   22   23 am   BACKBONE|DICT|INTERRES
    45   22   86 1    
    46   23   24 2    
    47   23   25 1    
    48   25   26 1    
    49   25   27 1    
    50   25   87 1    
    51   26   88 1    
    52   26   89 1    
    53   26   90 1    
    54   27   28 am   BACKBONE|DICT|INTERRES
    55   27   91 1    
    56   28   29 2    
    57   28   30 1    
    58   30   31 1    
    59   30   32 1    
    60   30   92 1    
    61   31   93 1    
    62   31   94 1    
    63   31   95 1    
    64   32   33 am   BACKBONE|DICT|INTERRES
    65   32   96 1    
    66   33   34 2    
    67   33   35 1    
    68   35   36 1    
    69   35   37 1    
    70   35   97 1    
    71   36   98 1    
    72   36   99 1    
    73   36  100 1    
    74   37   38 am   BACKBONE|DICT|INTERRES
    75   37  101 1    
    76   38   39 2    
    77   38   40 1    
    78   40   41 1    
    79   40   42 1    
    80   40  102 1    
    81   41  103 1    
    82   41  104 1    
    83   41  105 1    
    84   42   43 am   BACKBONE|DICT|INTERRES
    85   42  106 1    
    86   43   44 2    
    87   43   45 1    
    88   45   46 1    
    89   45   49 1    
    90   45  107 1    
    91   46   47 1    
    92   46  108 1    
    93   46  109 1    
    94   47   48 1    
    95   48  110 1    
    96   48  111 1    
    97   49   50 am   BACKBONE|DICT|INTERRES
    98   49  112 1    
    99   50   51 2    
   100   50   52 1    
   101   52   53 1    
   102   52   54 1    
   103   52  113 1    
   104   53  114 1    
   105   53  115 1    
   106   53  116 1    
   107   54   55 am   BACKBONE|DICT|INTERRES
   108   54  117 1    
   109   55   56 2    
   110   55   57 1    
   111   57   58 1    
   112   57   59 1    
   113   57  118 1    
   114   58  119 1    
   115   58  120 1    
   116   58  121 1    
   117   59   60 am   BACKBONE|DICT|INTERRES
   118   59  122 1    
   119   60   61 2    
   120   60   62 1    
   121   62   63 1    
   122   62   64 1    
   123   62  123 1    
   124   63  124 1    
   125   63  125 1    
   126   63  126 1    
   127   64   65 am   BACKBONE|DICT|INTERRES
   128   64  127 1    
   129   65   66 2    
@<TRIPOS>SUBSTRUCTURE
     1 UNK         1 GROUP             0       ****    0 ROOT    
