@<TRIPOS>MOLECULE
3R135
127   129    1
SMALL
USER_CHARGES


@<TRIPOS>ATOM
      1 CA        -83.7350   31.6946  -74.7538 C.3       0 UNK        -0.1998 
      2 C         -82.7911   30.5586  -74.3889 C.2       0 UNK         0.4909 
      3 O         -82.0118   30.1156  -75.2334 O.2       0 UNK        -0.5240 
      4 N         -82.8497   30.0911  -73.1358 N.am      1 UNK        -0.4739 
      5 CA        -82.0474   28.9779  -72.6183 C.3       1 UNK         0.0864 
      6 C6        -82.0899   28.9135  -71.0696 C.3       11 UNK        -0.0881 
      7 S7        -81.2919   30.3739  -70.3116 S.3       11 UNK        -0.2682 
      8 C8        -79.6645   29.7212  -69.7990 C.3       11 UNK         0.0289 
      9 C9        -78.9579   28.9911  -70.9324 C.ar      11 UNK        -0.0687 
     10 C10       -78.8184   27.6007  -70.8903 C.ar      11 UNK        -0.0823 
     11 C11       -78.2642   26.9096  -71.9702 C.ar      11 UNK        -0.0830 
     12 C12       -77.8310   27.6260  -73.0907 C.ar      11 UNK        -0.1021 
     13 C13       -77.9400   29.0185  -73.1360 C.ar      11 UNK        -0.0753 
     14 C14       -78.4977   29.6970  -72.0479 C.ar      11 UNK        -0.0933 
     15 C15       -77.5223   29.7741  -74.3922 C.3       11 UNK         0.0166 
     16 S16       -76.3462   31.1246  -74.0597 S.3       11 UNK        -0.2615 
     17 C17       -74.8327   30.2124  -73.5988 C.3       11 UNK        -0.0865 
     18 CA        -73.8047   30.1101  -74.7638 C.3       10 UNK         0.0862 
     19 C         -73.0491   31.4390  -75.0811 C.2       10 UNK         0.5551 
     20 N         -72.1072   31.4241  -76.0152 N.am      10 UNK        -0.7319 
     21 O         -73.2970   32.4846  -74.4847 O.2       10 UNK        -0.5018 
     22 N         -72.9023   28.9611  -74.5886 N.am      10 UNK        -0.4509 
     23 C         -71.9604   28.8479  -73.6390 C.2       10 UNK         0.4899 
     24 O         -71.7542   29.6877  -72.7627 O.2       10 UNK        -0.4839 
     25 CA        -71.1012   27.5763  -73.6637 C.3       9 UNK         0.0222 
     26 CB        -71.8321   26.4323  -72.9493 C.3       9 UNK        -0.1966 
     27 N         -70.7820   27.1787  -75.0355 N.am      9 UNK        -0.4218 
     28 C         -69.7158   27.6245  -75.7166 C.2       9 UNK         0.5020 
     29 O         -68.8353   28.3332  -75.2267 O.2       9 UNK        -0.5274 
     30 CA        -69.6077   27.2245  -77.2004 C.3       8 UNK         0.0270 
     31 CB        -68.8159   25.9149  -77.3489 C.3       8 UNK        -0.1976 
     32 N         -70.9060   27.0831  -77.8631 N.am      8 UNK        -0.4313 
     33 C         -71.7876   28.0760  -78.0478 C.2       8 UNK         0.5041 
     34 O         -71.5735   29.2482  -77.7411 O.2       8 UNK        -0.5577 
     35 CA        -73.1591   27.6950  -78.6328 C.3       7 UNK         0.0284 
     36 CB        -73.1848   27.9503  -80.1481 C.3       7 UNK        -0.1958 
     37 N         -73.5631   26.3090  -78.3641 N.am      7 UNK        -0.4454 
     38 C         -73.7517   25.7827  -77.1461 C.2       7 UNK         0.5089 
     39 O         -73.5652   26.4130  -76.1008 O.2       7 UNK        -0.5125 
     40 CA        -74.1893   24.3055  -77.1272 C.3       6 UNK         0.0408 
     41 CB        -73.0100   23.3663  -77.4550 C.3       6 UNK        -0.1791 
     42 N         -74.8669   23.9191  -75.8842 N.am      6 UNK        -0.4762 
     43 C         -74.3482   23.7662  -74.6540 C.2       6 UNK         0.5007 
     44 O         -73.1436   23.7882  -74.4018 O.2       6 UNK        -0.5032 
     45 CA        -75.3477   23.5606  -73.4952 C.3       5 UNK         0.0783 
     46 C46       -75.5270   24.8873  -72.7145 C.3       11 UNK        -0.0857 
     47 S47       -76.6424   24.7449  -71.2777 S.3       11 UNK        -0.2512 
     48 C48       -78.2083   25.3874  -71.9468 C.3       11 UNK         0.0225 
     49 N         -76.6253   23.0056  -73.9624 N.am      5 UNK        -0.4615 
     50 C         -76.8100   21.7190  -74.2826 C.2       4 UNK         0.5053 
     51 O         -75.9307   20.8618  -74.1924 O.2       4 UNK        -0.5105 
     52 CA        -78.2065   21.3043  -74.7811 C.3       4 UNK         0.0263 
     53 CB        -79.0349   20.7380  -73.6160 C.3       4 UNK        -0.1981 
     54 N         -78.9850   22.3553  -75.4478 N.am      4 UNK        -0.4224 
     55 C         -78.6266   23.0320  -76.5498 C.2       3 UNK         0.4895 
     56 O         -77.5183   22.9451  -77.0778 O.2       3 UNK        -0.5091 
     57 CA        -79.6854   23.9559  -77.1819 C.3       3 UNK         0.0250 
     58 CB        -80.3313   23.2708  -78.3973 C.3       3 UNK        -0.1996 
     59 N         -80.7389   24.3694  -76.2469 N.am      3 UNK        -0.4254 
     60 C         -80.5589   25.2820  -75.2847 C.2       2 UNK         0.5004 
     61 O         -79.4936   25.8732  -75.1026 O.2       2 UNK        -0.5226 
     62 CA        -81.7468   25.5494  -74.3528 C.3       2 UNK         0.0269 
     63 CB        -81.9047   24.4196  -73.3181 C.3       2 UNK        -0.1926 
     64 N         -81.5310   26.8202  -73.6647 N.am      2 UNK        -0.4687 
     65 C         -82.4976   27.6426  -73.2432 C.2       1 UNK         0.5165 
     66 O         -83.7012   27.3807  -73.3195 O.2       1 UNK        -0.5079 
     67 H67       -83.1662   32.5639  -75.0825 H         1 UNK         0.0900 
     68 H68       -84.3923   31.3891  -75.5675 H         1 UNK         0.0900 
     69 H69       -84.3565   31.9953  -73.9104 H         1 UNK         0.0900 
     70 H70       -83.5140   30.4867  -72.4864 H         1 UNK         0.2959 
     71 H71       -81.0170   29.1519  -72.9311 H         1 UNK         0.1079 
     72 H72       -81.6088   28.0074  -70.6980 H         1 UNK         0.0837 
     73 H73       -83.1223   28.8625  -70.7184 H         1 UNK         0.0837 
     74 H74       -79.8023   29.0629  -68.9397 H         1 UNK         0.0685 
     75 H75       -79.0410   30.5479  -69.4559 H         1 UNK         0.0685 
     76 H76       -79.1776   27.0499  -70.0315 H         1 UNK         0.1434 
     77 H77       -77.4416   27.0981  -73.9493 H         1 UNK         0.1329 
     78 H78       -78.6157   30.7714  -72.0880 H         1 UNK         0.1335 
     79 H79       -78.4160   30.1954  -74.8547 H         1 UNK         0.0680 
     80 H80       -77.0842   29.0991  -75.1295 H         1 UNK         0.0680 
     81 H81       -75.1198   29.2146  -73.2638 H         1 UNK         0.1032 
     82 H82       -74.3825   30.6919  -72.7279 H         1 UNK         0.1032 
     83 H83       -74.3687   29.8790  -75.6685 H         1 UNK         0.0461 
     84 H84       -71.6086   32.2739  -76.2230 H         1 UNK         0.3453 
     85 H85       -71.9045   30.5790  -76.5479 H         1 UNK         0.3453 
     86 H86       -73.0259   28.1970  -75.2435 H         1 UNK         0.2984 
     87 H87       -70.1779   27.7761  -73.1157 H         1 UNK         0.0554 
     88 H88       -71.2435   25.5147  -72.9546 H         1 UNK         0.0847 
     89 H89       -72.7880   26.2206  -73.4263 H         1 UNK         0.0847 
     90 H90       -72.0352   26.6858  -71.9080 H         1 UNK         0.0847 
     91 H91       -71.4807   26.6271  -75.5192 H         1 UNK         0.3141 
     92 H92       -69.0591   28.0172  -77.7139 H         1 UNK         0.0743 
     93 H93       -69.3280   25.0759  -76.8757 H         1 UNK         0.0784 
     94 H94       -68.6552   25.6639  -78.3976 H         1 UNK         0.0784 
     95 H95       -67.8324   25.9999  -76.8843 H         1 UNK         0.0784 
     96 H96       -71.1676   26.1558  -78.1634 H         1 UNK         0.3213 
     97 H97       -73.8987   28.3479  -78.1639 H         1 UNK         0.0855 
     98 H98       -74.1791   27.7840  -80.5632 H         1 UNK         0.0814 
     99 H99       -72.4846   27.3047  -80.6797 H         1 UNK         0.0814 
    100 H100      -72.9115   28.9822  -80.3741 H         1 UNK         0.0814 
    101 H101      -73.7378   25.7280  -79.1721 H         1 UNK         0.3105 
    102 H102      -74.9402   24.1824  -77.9093 H         1 UNK         0.0547 
    103 H103      -73.3074   22.3197  -77.3892 H         1 UNK         0.0837 
    104 H104      -72.1647   23.5171  -76.7830 H         1 UNK         0.0837 
    105 H105      -72.6455   23.5327  -78.4690 H         1 UNK         0.0837 
    106 H106      -75.8703   23.8119  -75.9784 H         1 UNK         0.3020 
    107 H107      -74.8927   22.8357  -72.8157 H         1 UNK         0.1245 
    108 H108      -75.8629   25.6827  -73.3774 H         1 UNK         0.0781 
    109 H109      -74.5646   25.2183  -72.3222 H         1 UNK         0.0781 
    110 H110      -79.0244   25.0016  -71.3342 H         1 UNK         0.0836 
    111 H111      -78.3748   24.9859  -72.9448 H         1 UNK         0.0836 
    112 H112      -77.3954   23.6482  -74.0655 H         1 UNK         0.3022 
    113 H113      -78.0570   20.5066  -75.5117 H         1 UNK         0.0747 
    114 H114      -79.9821   20.3251  -73.9636 H         1 UNK         0.0793 
    115 H115      -78.5004   19.9319  -73.1109 H         1 UNK         0.0793 
    116 H116      -79.2537   21.5016  -72.8682 H         1 UNK         0.0793 
    117 H117      -79.9187   22.5056  -75.0967 H         1 UNK         0.3047 
    118 H118      -79.1654   24.8498  -77.5341 H         1 UNK         0.0822 
    119 H119      -81.0265   23.9386  -78.9066 H         1 UNK         0.0807 
    120 H120      -80.8766   22.3699  -78.1129 H         1 UNK         0.0807 
    121 H121      -79.5753   22.9768  -79.1272 H         1 UNK         0.0807 
    122 H122      -81.6406   23.9244  -76.3476 H         1 UNK         0.2946 
    123 H123      -82.6489   25.6174  -74.9657 H         1 UNK         0.1144 
    124 H124      -81.0121   24.3077  -72.7024 H         1 UNK         0.0793 
    125 H125      -82.0907   23.4608  -73.8032 H         1 UNK         0.0793 
    126 H126      -82.7465   24.6082  -72.6515 H         1 UNK         0.0793 
    127 H127      -80.5598   27.1091  -73.6267 H         1 UNK         0.2896 
@<TRIPOS>BOND
     1    1    2 1    
     2    1   67 1    
     3    1   68 1    
     4    1   69 1    
     5    2    3 2    
     6    2    4 am   BACKBONE|DICT|INTERRES
     7    4    5 1    
     8    4   70 1    
     9    5    6 1    
    10    5   65 1    
    11    5   71 1    
    12    6    7 1    
    13    6   72 1    
    14    6   73 1    
    15    7    8 1    
    16    8    9 1    
    17    8   74 1    
    18    8   75 1    
    19    9   10 ar   
    20    9   14 ar   
    21   10   11 ar   
    22   10   76 1    
    23   11   12 ar   
    24   11   48 1    
    25   12   13 ar   
    26   12   77 1    
    27   13   14 ar   
    28   13   15 1    
    29   14   78 1    
    30   15   16 1    
    31   15   79 1    
    32   15   80 1    
    33   16   17 1    
    34   17   18 1    
    35   17   81 1    
    36   17   82 1    
    37   18   19 1    
    38   18   22 1    
    39   18   83 1    
    40   19   20 am   BACKBONE|DICT|INTERRES
    41   19   21 2    
    42   20   84 1    
    43   20   85 1    
    44   22   23 am   BACKBONE|DICT|INTERRES
    45   22   86 1    
    46   23   24 2    
    47   23   25 1    
    48   25   26 1    
    49   25   27 1    
    50   25   87 1    
    51   26   88 1    
    52   26   89 1    
    53   26   90 1    
    54   27   28 am   BACKBONE|DICT|INTERRES
    55   27   91 1    
    56   28   29 2    
    57   28   30 1    
    58   30   31 1    
    59   30   32 1    
    60   30   92 1    
    61   31   93 1    
    62   31   94 1    
    63   31   95 1    
    64   32   33 am   BACKBONE|DICT|INTERRES
    65   32   96 1    
    66   33   34 2    
    67   33   35 1    
    68   35   36 1    
    69   35   37 1    
    70   35   97 1    
    71   36   98 1    
    72   36   99 1    
    73   36  100 1    
    74   37   38 am   BACKBONE|DICT|INTERRES
    75   37  101 1    
    76   38   39 2    
    77   38   40 1    
    78   40   41 1    
    79   40   42 1    
    80   40  102 1    
    81   41  103 1    
    82   41  104 1    
    83   41  105 1    
    84   42   43 am   BACKBONE|DICT|INTERRES
    85   42  106 1    
    86   43   44 2    
    87   43   45 1    
    88   45   46 1    
    89   45   49 1    
    90   45  107 1    
    91   46   47 1    
    92   46  108 1    
    93   46  109 1    
    94   47   48 1    
    95   48  110 1    
    96   48  111 1    
    97   49   50 am   BACKBONE|DICT|INTERRES
    98   49  112 1    
    99   50   51 2    
   100   50   52 1    
   101   52   53 1    
   102   52   54 1    
   103   52  113 1    
   104   53  114 1    
   105   53  115 1    
   106   53  116 1    
   107   54   55 am   BACKBONE|DICT|INTERRES
   108   54  117 1    
   109   55   56 2    
   110   55   57 1    
   111   57   58 1    
   112   57   59 1    
   113   57  118 1    
   114   58  119 1    
   115   58  120 1    
   116   58  121 1    
   117   59   60 am   BACKBONE|DICT|INTERRES
   118   59  122 1    
   119   60   61 2    
   120   60   62 1    
   121   62   63 1    
   122   62   64 1    
   123   62  123 1    
   124   63  124 1    
   125   63  125 1    
   126   63  126 1    
   127   64   65 am   BACKBONE|DICT|INTERRES
   128   64  127 1    
   129   65   66 2    
@<TRIPOS>SUBSTRUCTURE
     1 UNK         1 GROUP             0       ****    0 ROOT    
