@<TRIPOS>MOLECULE
3R135
127   129    1
SMALL
USER_CHARGES


@<TRIPOS>ATOM
      1 CA        -80.3185   24.7279  -71.6438 C.3       0 UNK        -0.1998 
      2 C         -80.4026   25.5967  -72.8887 C.2       0 UNK         0.4909 
      3 O         -79.5656   25.4633  -73.7853 O.2       0 UNK        -0.5240 
      4 N         -81.4186   26.4729  -72.9420 N.am      1 UNK        -0.4739 
      5 CA        -81.6992   27.4249  -74.0298 C.3       1 UNK         0.0864 
      6 C6        -80.6507   28.5725  -74.1004 C.3       11 UNK        -0.0881 
      7 S7        -80.9881   29.9058  -72.9013 S.3       11 UNK        -0.2682 
      8 C8        -80.1249   29.3437  -71.3930 C.3       11 UNK         0.0289 
      9 C9        -78.6191   29.1184  -71.5299 C.ar      11 UNK        -0.0687 
     10 C10       -78.0066   28.1866  -70.6880 C.ar      11 UNK        -0.0823 
     11 C11       -76.6339   27.9379  -70.7700 C.ar      11 UNK        -0.0830 
     12 C12       -75.8655   28.6299  -71.7097 C.ar      11 UNK        -0.1021 
     13 C13       -76.4585   29.5774  -72.5495 C.ar      11 UNK        -0.0753 
     14 C14       -77.8311   29.8250  -72.4475 C.ar      11 UNK        -0.0933 
     15 C15       -75.6314   30.3132  -73.5927 C.3       11 UNK         0.0166 
     16 S16       -74.9397   31.8685  -72.9478 S.3       11 UNK        -0.2615 
     17 C17       -73.3759   31.3051  -72.1901 C.3       11 UNK        -0.0865 
     18 CA        -72.1507   31.5613  -73.1056 C.3       10 UNK         0.0862 
     19 C         -70.8322   31.1995  -72.3728 C.2       10 UNK         0.5551 
     20 N         -70.0901   32.1901  -71.8978 N.am      10 UNK        -0.7319 
     21 O         -70.5066   30.0283  -72.1906 O.2       10 UNK        -0.5018 
     22 N         -72.2740   30.8382  -74.3774 N.am      10 UNK        -0.4509 
     23 C         -71.5714   31.0941  -75.4862 C.2       10 UNK         0.4899 
     24 O         -70.7551   32.0117  -75.5867 O.2       10 UNK        -0.4839 
     25 CA        -71.8568   30.1683  -76.6856 C.3       9 UNK         0.0222 
     26 CB        -70.8511   30.3439  -77.8437 C.3       9 UNK        -0.1966 
     27 N         -71.9772   28.7566  -76.2973 N.am      9 UNK        -0.4218 
     28 C         -71.0267   27.9849  -75.7400 C.2       9 UNK         0.5020 
     29 O         -69.8817   28.3702  -75.5003 O.2       9 UNK        -0.5274 
     30 CA        -71.4038   26.5350  -75.3748 C.3       8 UNK         0.0270 
     31 CB        -71.5743   26.4006  -73.8521 C.3       8 UNK        -0.1976 
     32 N         -72.6167   26.0577  -76.0468 N.am      8 UNK        -0.4313 
     33 C         -72.6930   25.7802  -77.3585 C.2       8 UNK         0.5041 
     34 O         -71.7154   25.7946  -78.1078 O.2       8 UNK        -0.5577 
     35 CA        -74.0765   25.4562  -77.9606 C.3       7 UNK         0.0284 
     36 CB        -74.1938   23.9509  -78.2504 C.3       7 UNK        -0.1958 
     37 N         -75.2255   25.8764  -77.1520 N.am      7 UNK        -0.4454 
     38 C         -75.4912   27.1280  -76.7478 C.2       7 UNK         0.5089 
     39 O         -74.8013   28.1064  -77.0386 O.2       7 UNK        -0.5125 
     40 CA        -76.6880   27.3048  -75.7947 C.3       6 UNK         0.0408 
     41 CB        -77.9693   27.5158  -76.6112 C.3       6 UNK        -0.1791 
     42 N         -76.8762   26.1991  -74.8430 N.am      6 UNK        -0.4762 
     43 C         -75.9260   25.6980  -74.0331 C.2       6 UNK         0.5007 
     44 O         -74.7674   26.1145  -74.0191 O.2       6 UNK        -0.5032 
     45 CA        -76.2901   24.4907  -73.1466 C.3       5 UNK         0.0783 
     46 C46       -76.7111   24.8952  -71.7153 C.3       11 UNK        -0.0857 
     47 S47       -75.2982   25.4791  -70.7157 S.3       11 UNK        -0.2512 
     48 C48       -75.9914   26.9181  -69.8382 C.3       11 UNK         0.0225 
     49 N         -77.3197   23.6767  -73.7951 N.am      5 UNK        -0.4615 
     50 C         -77.1104   22.4508  -74.2853 C.2       4 UNK         0.5053 
     51 O         -76.0536   21.8302  -74.1634 O.2       4 UNK        -0.5105 
     52 CA        -78.2693   21.7980  -75.0554 C.3       4 UNK         0.0263 
     53 CB        -79.2832   21.1791  -74.0796 C.3       4 UNK        -0.1981 
     54 N         -78.9816   22.6654  -75.9994 N.am      4 UNK        -0.4224 
     55 C         -78.4574   23.4639  -76.9388 C.2       3 UNK         0.4895 
     56 O         -77.2585   23.7249  -77.0395 O.2       3 UNK        -0.5091 
     57 CA        -79.4309   24.0683  -77.9684 C.3       3 UNK         0.0250 
     58 CB        -79.6542   23.0928  -79.1405 C.3       3 UNK        -0.1996 
     59 N         -80.7084   24.5549  -77.4240 N.am      3 UNK        -0.4254 
     60 C         -81.7220   23.8633  -76.8847 C.2       2 UNK         0.5004 
     61 O         -81.6987   22.6454  -76.6962 O.2       2 UNK        -0.5226 
     62 CA        -82.9495   24.6863  -76.4506 C.3       2 UNK         0.0269 
     63 CB        -84.1515   23.7989  -76.0754 C.3       2 UNK        -0.1926 
     64 N         -82.6360   25.5566  -75.3162 N.am      2 UNK        -0.4687 
     65 C         -81.9442   26.7036  -75.3781 C.2       1 UNK         0.5165 
     66 O         -81.5161   27.1700  -76.4363 O.2       1 UNK        -0.5079 
     67 H67       -79.7638   25.2437  -70.8612 H         1 UNK         0.0900 
     68 H68       -79.8084   23.7908  -71.8626 H         1 UNK         0.0900 
     69 H69       -81.3100   24.4879  -71.2607 H         1 UNK         0.0900 
     70 H70       -82.0680   26.5101  -72.1683 H         1 UNK         0.2959 
     71 H71       -82.6659   27.8757  -73.7987 H         1 UNK         0.1079 
     72 H72       -80.6521   29.0598  -75.0765 H         1 UNK         0.0837 
     73 H73       -79.6387   28.1933  -73.9600 H         1 UNK         0.0837 
     74 H74       -80.2876   30.0864  -70.6111 H         1 UNK         0.0685 
     75 H75       -80.6084   28.4286  -71.0492 H         1 UNK         0.0685 
     76 H76       -78.6045   27.6488  -69.9648 H         1 UNK         0.1434 
     77 H77       -74.8094   28.4150  -71.7926 H         1 UNK         0.1329 
     78 H78       -78.2838   30.5621  -73.0956 H         1 UNK         0.1335 
     79 H79       -76.2567   30.5495  -74.4551 H         1 UNK         0.0680 
     80 H80       -74.8370   29.6676  -73.9687 H         1 UNK         0.0680 
     81 H81       -73.4436   30.2514  -71.9187 H         1 UNK         0.1032 
     82 H82       -73.2596   31.8459  -71.2488 H         1 UNK         0.1032 
     83 H83       -72.1302   32.6284  -73.3384 H         1 UNK         0.0461 
     84 H84       -69.2390   31.9718  -71.4035 H         1 UNK         0.3453 
     85 H85       -70.3554   33.1529  -72.0371 H         1 UNK         0.3453 
     86 H86       -72.8916   30.0424  -74.3772 H         1 UNK         0.2984 
     87 H87       -72.8389   30.4581  -77.0622 H         1 UNK         0.0554 
     88 H88       -71.0906   29.6869  -78.6798 H         1 UNK         0.0847 
     89 H89       -69.8287   30.1299  -77.5309 H         1 UNK         0.0847 
     90 H90       -70.8661   31.3668  -78.2216 H         1 UNK         0.0847 
     91 H91       -72.8898   28.3430  -76.4688 H         1 UNK         0.3141 
     92 H92       -70.5741   25.8942  -75.6806 H         1 UNK         0.0743 
     93 H93       -72.3494   27.0672  -73.4718 H         1 UNK         0.0784 
     94 H94       -71.8376   25.3819  -73.5668 H         1 UNK         0.0784 
     95 H95       -70.6492   26.6552  -73.3330 H         1 UNK         0.0784 
     96 H96       -73.4614   26.0238  -75.4806 H         1 UNK         0.3213 
     97 H97       -74.1392   25.9925  -78.9096 H         1 UNK         0.0855 
     98 H98       -74.2038   23.3643  -77.3307 H         1 UNK         0.0814 
     99 H99       -73.3569   23.5989  -78.8554 H         1 UNK         0.0814 
    100 H100      -75.1063   23.7234  -78.8019 H         1 UNK         0.0814 
    101 H101      -75.8757   25.1420  -76.8830 H         1 UNK         0.3105 
    102 H102      -76.5134   28.2004  -75.2000 H         1 UNK         0.0547 
    103 H103      -78.1099   26.7250  -77.3460 H         1 UNK         0.0837 
    104 H104      -78.8549   27.5389  -75.9802 H         1 UNK         0.0837 
    105 H105      -77.9301   28.4606  -77.1567 H         1 UNK         0.0837 
    106 H106      -77.8196   25.8392  -74.7494 H         1 UNK         0.3020 
    107 H107      -75.3713   23.9060  -73.0586 H         1 UNK         0.1245 
    108 H108      -77.1329   24.0337  -71.1955 H         1 UNK         0.0781 
    109 H109      -77.5049   25.6396  -71.7510 H         1 UNK         0.0781 
    110 H110      -75.1933   27.4044  -69.2756 H         1 UNK         0.0836 
    111 H111      -76.7095   26.5609  -69.0985 H         1 UNK         0.0836 
    112 H112      -78.2217   24.1232  -73.9365 H         1 UNK         0.3022 
    113 H113      -77.8380   20.9892  -75.6482 H         1 UNK         0.0747 
    114 H114      -80.0235   20.5773  -74.6074 H         1 UNK         0.0793 
    115 H115      -78.7888   20.5247  -73.3600 H         1 UNK         0.0793 
    116 H116      -79.8172   21.9440  -73.5154 H         1 UNK         0.0793 
    117 H117      -79.9898   22.5349  -76.0518 H         1 UNK         0.3047 
    118 H118      -78.9376   24.9444  -78.3876 H         1 UNK         0.0822 
    119 H119      -80.2749   23.5407  -79.9164 H         1 UNK         0.0807 
    120 H120      -80.1339   22.1677  -78.8195 H         1 UNK         0.0807 
    121 H121      -78.7051   22.8193  -79.6035 H         1 UNK         0.0807 
    122 H122      -80.8182   25.5650  -77.4230 H         1 UNK         0.2946 
    123 H123      -83.2447   25.3044  -77.3020 H         1 UNK         0.1144 
    124 H124      -83.9356   23.1657  -75.2138 H         1 UNK         0.0793 
    125 H125      -84.4245   23.1419  -76.9025 H         1 UNK         0.0793 
    126 H126      -85.0296   24.3999  -75.8384 H         1 UNK         0.0793 
    127 H127      -82.9150   25.2241  -74.4044 H         1 UNK         0.2896 
@<TRIPOS>BOND
     1    1    2 1    
     2    1   67 1    
     3    1   68 1    
     4    1   69 1    
     5    2    3 2    
     6    2    4 am   BACKBONE|DICT|INTERRES
     7    4    5 1    
     8    4   70 1    
     9    5    6 1    
    10    5   65 1    
    11    5   71 1    
    12    6    7 1    
    13    6   72 1    
    14    6   73 1    
    15    7    8 1    
    16    8    9 1    
    17    8   74 1    
    18    8   75 1    
    19    9   10 ar   
    20    9   14 ar   
    21   10   11 ar   
    22   10   76 1    
    23   11   12 ar   
    24   11   48 1    
    25   12   13 ar   
    26   12   77 1    
    27   13   14 ar   
    28   13   15 1    
    29   14   78 1    
    30   15   16 1    
    31   15   79 1    
    32   15   80 1    
    33   16   17 1    
    34   17   18 1    
    35   17   81 1    
    36   17   82 1    
    37   18   19 1    
    38   18   22 1    
    39   18   83 1    
    40   19   20 am   BACKBONE|DICT|INTERRES
    41   19   21 2    
    42   20   84 1    
    43   20   85 1    
    44   22   23 am   BACKBONE|DICT|INTERRES
    45   22   86 1    
    46   23   24 2    
    47   23   25 1    
    48   25   26 1    
    49   25   27 1    
    50   25   87 1    
    51   26   88 1    
    52   26   89 1    
    53   26   90 1    
    54   27   28 am   BACKBONE|DICT|INTERRES
    55   27   91 1    
    56   28   29 2    
    57   28   30 1    
    58   30   31 1    
    59   30   32 1    
    60   30   92 1    
    61   31   93 1    
    62   31   94 1    
    63   31   95 1    
    64   32   33 am   BACKBONE|DICT|INTERRES
    65   32   96 1    
    66   33   34 2    
    67   33   35 1    
    68   35   36 1    
    69   35   37 1    
    70   35   97 1    
    71   36   98 1    
    72   36   99 1    
    73   36  100 1    
    74   37   38 am   BACKBONE|DICT|INTERRES
    75   37  101 1    
    76   38   39 2    
    77   38   40 1    
    78   40   41 1    
    79   40   42 1    
    80   40  102 1    
    81   41  103 1    
    82   41  104 1    
    83   41  105 1    
    84   42   43 am   BACKBONE|DICT|INTERRES
    85   42  106 1    
    86   43   44 2    
    87   43   45 1    
    88   45   46 1    
    89   45   49 1    
    90   45  107 1    
    91   46   47 1    
    92   46  108 1    
    93   46  109 1    
    94   47   48 1    
    95   48  110 1    
    96   48  111 1    
    97   49   50 am   BACKBONE|DICT|INTERRES
    98   49  112 1    
    99   50   51 2    
   100   50   52 1    
   101   52   53 1    
   102   52   54 1    
   103   52  113 1    
   104   53  114 1    
   105   53  115 1    
   106   53  116 1    
   107   54   55 am   BACKBONE|DICT|INTERRES
   108   54  117 1    
   109   55   56 2    
   110   55   57 1    
   111   57   58 1    
   112   57   59 1    
   113   57  118 1    
   114   58  119 1    
   115   58  120 1    
   116   58  121 1    
   117   59   60 am   BACKBONE|DICT|INTERRES
   118   59  122 1    
   119   60   61 2    
   120   60   62 1    
   121   62   63 1    
   122   62   64 1    
   123   62  123 1    
   124   63  124 1    
   125   63  125 1    
   126   63  126 1    
   127   64   65 am   BACKBONE|DICT|INTERRES
   128   64  127 1    
   129   65   66 2    
@<TRIPOS>SUBSTRUCTURE
     1 UNK         1 GROUP             0       ****    0 ROOT    
