@<TRIPOS>MOLECULE
3R135
127   129    1
SMALL
USER_CHARGES


@<TRIPOS>ATOM
      1 CA        -86.2593   24.6169  -71.9680 C.3       0 UNK        -0.1998 
      2 C         -85.1859   25.0667  -72.9478 C.2       0 UNK         0.4909 
      3 O         -85.4473   25.1426  -74.1486 O.2       0 UNK        -0.5240 
      4 N         -83.9813   25.3689  -72.4438 N.am      1 UNK        -0.4739 
      5 CA        -82.8205   25.7899  -73.2398 C.3       1 UNK         0.0864 
      6 C6        -81.7254   26.4067  -72.3328 C.3       11 UNK        -0.0881 
      7 S7        -80.5437   27.4684  -73.2286 S.3       11 UNK        -0.2682 
      8 C8        -79.8511   28.4135  -71.8363 C.3       11 UNK         0.0289 
      9 C9        -78.5339   29.0816  -72.2028 C.ar      11 UNK        -0.0687 
     10 C10       -78.5235   30.2627  -72.9512 C.ar      11 UNK        -0.0823 
     11 C11       -77.3134   30.8852  -73.2758 C.ar      11 UNK        -0.0830 
     12 C12       -76.1120   30.3277  -72.8297 C.ar      11 UNK        -0.1021 
     13 C13       -76.1083   29.1426  -72.0898 C.ar      11 UNK        -0.0753 
     14 C14       -77.3229   28.5227  -71.7813 C.ar      11 UNK        -0.0933 
     15 C15       -74.7909   28.5102  -71.6689 C.3       11 UNK         0.0166 
     16 S16       -73.7903   29.6223  -70.6309 S.3       11 UNK        -0.2615 
     17 C17       -72.2894   28.6111  -70.3961 C.3       11 UNK        -0.0865 
     18 CA        -71.1288   28.9921  -71.3547 C.3       10 UNK         0.0862 
     19 C         -69.8435   28.1978  -70.9737 C.2       10 UNK         0.5551 
     20 N         -69.4209   27.2020  -71.7452 N.am      10 UNK        -0.7319 
     21 O         -69.2222   28.4935  -69.9560 O.2       10 UNK        -0.5018 
     22 N         -71.5216   28.8592  -72.7666 N.am      10 UNK        -0.4509 
     23 C         -70.8205   29.3083  -73.8153 C.2       10 UNK         0.4899 
     24 O         -69.8366   30.0420  -73.7084 O.2       10 UNK        -0.4839 
     25 CA        -71.2872   28.8588  -75.2195 C.3       9 UNK         0.0222 
     26 CB        -70.1002   28.6440  -76.1813 C.3       9 UNK        -0.1966 
     27 N         -72.1694   27.6792  -75.2414 N.am      9 UNK        -0.4218 
     28 C         -71.9145   26.4607  -74.7339 C.2       9 UNK         0.5020 
     29 O         -70.8855   26.1732  -74.1200 O.2       9 UNK        -0.5274 
     30 CA        -73.0013   25.3893  -74.9031 C.3       8 UNK         0.0270 
     31 CB        -74.1029   25.5479  -73.8424 C.3       8 UNK        -0.1976 
     32 N         -73.6061   25.3934  -76.2334 N.am      8 UNK        -0.4313 
     33 C         -73.0187   24.9170  -77.3386 C.2       8 UNK         0.5041 
     34 O         -71.8813   24.4452  -77.3666 O.2       8 UNK        -0.5577 
     35 CA        -73.8488   24.9622  -78.6286 C.3       7 UNK         0.0284 
     36 CB        -74.9399   23.8770  -78.6183 C.3       7 UNK        -0.1958 
     37 N         -74.4630   26.2759  -78.8173 N.am      7 UNK        -0.4454 
     38 C         -73.8667   27.3052  -79.4329 C.2       7 UNK         0.5089 
     39 O         -72.7441   27.2447  -79.9358 O.2       7 UNK        -0.5125 
     40 CA        -74.6539   28.6256  -79.5288 C.3       6 UNK         0.0408 
     41 CB        -75.3045   28.7585  -80.9151 C.3       6 UNK        -0.1791 
     42 N         -75.6850   28.7866  -78.4997 N.am      6 UNK        -0.4762 
     43 C         -75.4320   28.9988  -77.2008 C.2       6 UNK         0.5007 
     44 O         -74.3003   29.0212  -76.7162 O.2       6 UNK        -0.5032 
     45 CA        -76.6588   29.1489  -76.2793 C.3       5 UNK         0.0783 
     46 C46       -77.3484   30.5289  -76.4531 C.3       11 UNK        -0.0857 
     47 S47       -76.4044   31.8973  -75.7002 S.3       11 UNK        -0.2512 
     48 C48       -77.2965   32.1466  -74.1282 C.3       11 UNK         0.0225 
     49 N         -77.6306   28.0548  -76.3962 N.am      5 UNK        -0.4615 
     50 C         -77.3665   26.7422  -76.3658 C.2       4 UNK         0.5053 
     51 O         -76.2354   26.2550  -76.4023 O.2       4 UNK        -0.5105 
     52 CA        -78.5885   25.8141  -76.3467 C.3       4 UNK         0.0263 
     53 CB        -78.9695   25.4148  -77.7811 C.3       4 UNK        -0.1981 
     54 N         -78.3963   24.5981  -75.5523 N.am      4 UNK        -0.4224 
     55 C         -78.0188   24.5309  -74.2670 C.2       3 UNK         0.4895 
     56 O         -77.6877   25.4976  -73.5805 O.2       3 UNK        -0.5091 
     57 CA        -78.1137   23.1369  -73.6229 C.3       3 UNK         0.0250 
     58 CB        -77.4491   23.0759  -72.2344 C.3       3 UNK        -0.1996 
     59 N         -79.5257   22.7748  -73.4935 N.am      3 UNK        -0.4254 
     60 C         -80.2700   22.2308  -74.4659 C.2       2 UNK         0.5004 
     61 O         -79.8103   21.8290  -75.5357 O.2       2 UNK        -0.5226 
     62 CA        -81.7892   22.1946  -74.2279 C.3       2 UNK         0.0269 
     63 CB        -82.1856   20.9578  -73.4058 C.3       2 UNK        -0.1926 
     64 N         -82.2902   23.4070  -73.5683 N.am      2 UNK        -0.4687 
     65 C         -82.2669   24.6377  -74.1085 C.2       1 UNK         0.5165 
     66 O         -81.8572   24.8743  -75.2454 O.2       1 UNK        -0.5079 
     67 H67       -87.1154   25.2894  -72.0149 H         1 UNK         0.0900 
     68 H68       -85.8952   24.6034  -70.9408 H         1 UNK         0.0900 
     69 H69       -86.6000   23.6131  -72.2200 H         1 UNK         0.0900 
     70 H70       -83.8327   25.2975  -71.4469 H         1 UNK         0.2959 
     71 H71       -83.1694   26.5661  -73.9253 H         1 UNK         0.1079 
     72 H72       -82.1967   27.0280  -71.5689 H         1 UNK         0.0837 
     73 H73       -81.1740   25.6349  -71.7920 H         1 UNK         0.0837 
     74 H74       -79.7046   27.7465  -70.9852 H         1 UNK         0.0685 
     75 H75       -80.5731   29.1663  -71.5165 H         1 UNK         0.0685 
     76 H76       -79.4594   30.6872  -73.2883 H         1 UNK         0.1434 
     77 H77       -75.1739   30.8031  -73.0835 H         1 UNK         0.1329 
     78 H78       -77.3276   27.5974  -71.2214 H         1 UNK         0.1335 
     79 H79       -74.2315   28.2585  -72.5686 H         1 UNK         0.0680 
     80 H80       -74.9630   27.5757  -71.1323 H         1 UNK         0.0680 
     81 H81       -71.9765   28.7449  -69.3585 H         1 UNK         0.1032 
     82 H82       -72.5385   27.5526  -70.4939 H         1 UNK         0.1032 
     83 H83       -70.8963   30.0458  -71.1888 H         1 UNK         0.0461 
     84 H84       -69.9324   26.9353  -72.5812 H         1 UNK         0.3453 
     85 H85       -68.5874   26.6985  -71.4872 H         1 UNK         0.3453 
     86 H86       -72.3088   28.2600  -72.9527 H         1 UNK         0.2984 
     87 H87       -71.8819   29.6850  -75.6110 H         1 UNK         0.0554 
     88 H88       -70.4440   28.3619  -77.1766 H         1 UNK         0.0847 
     89 H89       -69.4294   27.8619  -75.8241 H         1 UNK         0.0847 
     90 H90       -69.5101   29.5545  -76.2915 H         1 UNK         0.0847 
     91 H91       -73.0514   27.8313  -75.7238 H         1 UNK         0.3141 
     92 H92       -72.5270   24.4178  -74.7478 H         1 UNK         0.0743 
     93 H93       -73.6822   25.6053  -72.8376 H         1 UNK         0.0784 
     94 H94       -74.7001   26.4453  -74.0078 H         1 UNK         0.0784 
     95 H95       -74.7852   24.6980  -73.8582 H         1 UNK         0.0784 
     96 H96       -74.5635   25.7427  -76.3011 H         1 UNK         0.3213 
     97 H97       -73.1796   24.7518  -79.4662 H         1 UNK         0.0855 
     98 H98       -75.6497   24.0144  -77.8018 H         1 UNK         0.0814 
     99 H99       -74.4996   22.8859  -78.5017 H         1 UNK         0.0814 
    100 H100      -75.5021   23.8730  -79.5522 H         1 UNK         0.0814 
    101 H101      -75.3521   26.4345  -78.3602 H         1 UNK         0.3105 
    102 H102      -73.9353   29.4400  -79.4131 H         1 UNK         0.0547 
    103 H103      -76.0489   27.9806  -81.0890 H         1 UNK         0.0837 
    104 H104      -75.7926   29.7258  -81.0348 H         1 UNK         0.0837 
    105 H105      -74.5576   28.6760  -81.7061 H         1 UNK         0.0837 
    106 H106      -76.6473   28.7488  -78.8047 H         1 UNK         0.3020 
    107 H107      -76.2807   29.0773  -75.2586 H         1 UNK         0.1245 
    108 H108      -78.3404   30.5161  -75.9988 H         1 UNK         0.0781 
    109 H109      -77.5181   30.7576  -77.5069 H         1 UNK         0.0781 
    110 H110      -76.8134   32.9491  -73.5692 H         1 UNK         0.0836 
    111 H111      -78.3101   32.4889  -74.3432 H         1 UNK         0.0836 
    112 H112      -78.6000   28.3361  -76.3898 H         1 UNK         0.3022 
    113 H113      -79.4263   26.3525  -75.8994 H         1 UNK         0.0747 
    114 H114      -79.1506   26.2943  -78.4005 H         1 UNK         0.0793 
    115 H115      -79.8825   24.8186  -77.7953 H         1 UNK         0.0793 
    116 H116      -78.1803   24.8340  -78.2605 H         1 UNK         0.0793 
    117 H117      -78.6836   23.7326  -75.9908 H         1 UNK         0.3047 
    118 H118      -77.6020   22.4248  -74.2744 H         1 UNK         0.0822 
    119 H119      -76.3948   23.3486  -72.2958 H         1 UNK         0.0807 
    120 H120      -77.4999   22.0709  -71.8152 H         1 UNK         0.0807 
    121 H121      -77.9212   23.7586  -71.5267 H         1 UNK         0.0807 
    122 H122      -79.9995   23.1082  -72.6669 H         1 UNK         0.2946 
    123 H123      -82.2695   22.1244  -75.2067 H         1 UNK         0.1144 
    124 H124      -81.8382   20.0426  -73.8875 H         1 UNK         0.0793 
    125 H125      -83.2684   20.8780  -73.3067 H         1 UNK         0.0793 
    126 H126      -81.7568   20.9813  -72.4032 H         1 UNK         0.0793 
    127 H127      -82.6793   23.2986  -72.6428 H         1 UNK         0.2896 
@<TRIPOS>BOND
     1    1    2 1    
     2    1   67 1    
     3    1   68 1    
     4    1   69 1    
     5    2    3 2    
     6    2    4 am   BACKBONE|DICT|INTERRES
     7    4    5 1    
     8    4   70 1    
     9    5    6 1    
    10    5   65 1    
    11    5   71 1    
    12    6    7 1    
    13    6   72 1    
    14    6   73 1    
    15    7    8 1    
    16    8    9 1    
    17    8   74 1    
    18    8   75 1    
    19    9   10 ar   
    20    9   14 ar   
    21   10   11 ar   
    22   10   76 1    
    23   11   12 ar   
    24   11   48 1    
    25   12   13 ar   
    26   12   77 1    
    27   13   14 ar   
    28   13   15 1    
    29   14   78 1    
    30   15   16 1    
    31   15   79 1    
    32   15   80 1    
    33   16   17 1    
    34   17   18 1    
    35   17   81 1    
    36   17   82 1    
    37   18   19 1    
    38   18   22 1    
    39   18   83 1    
    40   19   20 am   BACKBONE|DICT|INTERRES
    41   19   21 2    
    42   20   84 1    
    43   20   85 1    
    44   22   23 am   BACKBONE|DICT|INTERRES
    45   22   86 1    
    46   23   24 2    
    47   23   25 1    
    48   25   26 1    
    49   25   27 1    
    50   25   87 1    
    51   26   88 1    
    52   26   89 1    
    53   26   90 1    
    54   27   28 am   BACKBONE|DICT|INTERRES
    55   27   91 1    
    56   28   29 2    
    57   28   30 1    
    58   30   31 1    
    59   30   32 1    
    60   30   92 1    
    61   31   93 1    
    62   31   94 1    
    63   31   95 1    
    64   32   33 am   BACKBONE|DICT|INTERRES
    65   32   96 1    
    66   33   34 2    
    67   33   35 1    
    68   35   36 1    
    69   35   37 1    
    70   35   97 1    
    71   36   98 1    
    72   36   99 1    
    73   36  100 1    
    74   37   38 am   BACKBONE|DICT|INTERRES
    75   37  101 1    
    76   38   39 2    
    77   38   40 1    
    78   40   41 1    
    79   40   42 1    
    80   40  102 1    
    81   41  103 1    
    82   41  104 1    
    83   41  105 1    
    84   42   43 am   BACKBONE|DICT|INTERRES
    85   42  106 1    
    86   43   44 2    
    87   43   45 1    
    88   45   46 1    
    89   45   49 1    
    90   45  107 1    
    91   46   47 1    
    92   46  108 1    
    93   46  109 1    
    94   47   48 1    
    95   48  110 1    
    96   48  111 1    
    97   49   50 am   BACKBONE|DICT|INTERRES
    98   49  112 1    
    99   50   51 2    
   100   50   52 1    
   101   52   53 1    
   102   52   54 1    
   103   52  113 1    
   104   53  114 1    
   105   53  115 1    
   106   53  116 1    
   107   54   55 am   BACKBONE|DICT|INTERRES
   108   54  117 1    
   109   55   56 2    
   110   55   57 1    
   111   57   58 1    
   112   57   59 1    
   113   57  118 1    
   114   58  119 1    
   115   58  120 1    
   116   58  121 1    
   117   59   60 am   BACKBONE|DICT|INTERRES
   118   59  122 1    
   119   60   61 2    
   120   60   62 1    
   121   62   63 1    
   122   62   64 1    
   123   62  123 1    
   124   63  124 1    
   125   63  125 1    
   126   63  126 1    
   127   64   65 am   BACKBONE|DICT|INTERRES
   128   64  127 1    
   129   65   66 2    
@<TRIPOS>SUBSTRUCTURE
     1 UNK         1 GROUP             0       ****    0 ROOT    
