@<TRIPOS>MOLECULE
3R135
127   129    1
SMALL
USER_CHARGES


@<TRIPOS>ATOM
      1 CA        -84.0665   24.3546  -74.2344 C.3       0 UNK        -0.1998 
      2 C         -83.0849   25.5150  -74.2785 C.2       0 UNK         0.4909 
      3 O         -82.7887   26.0265  -75.3589 O.2       0 UNK        -0.5240 
      4 N         -82.5811   25.9408  -73.1123 N.am      1 UNK        -0.4739 
      5 CA        -81.6750   27.0853  -72.9718 C.3       1 UNK         0.0864 
      6 C6        -81.5097   27.5130  -71.4935 C.3       11 UNK        -0.0881 
      7 S7        -81.1661   29.3001  -71.3503 S.3       11 UNK        -0.2682 
      8 C8        -79.8164   29.3401  -70.1315 C.3       11 UNK         0.0289 
      9 C9        -78.4950   28.8512  -70.7069 C.ar      11 UNK        -0.0687 
     10 C10       -78.0056   27.5866  -70.3712 C.ar      11 UNK        -0.0823 
     11 C11       -76.7686   27.1526  -70.8547 C.ar      11 UNK        -0.0830 
     12 C12       -76.0135   27.9965  -71.6741 C.ar      11 UNK        -0.1021 
     13 C13       -76.4965   29.2614  -72.0280 C.ar      11 UNK        -0.0753 
     14 C14       -77.7395   29.6808  -71.5413 C.ar      11 UNK        -0.0933 
     15 C15       -75.6679   30.1955  -72.9015 C.3       11 UNK         0.0166 
     16 S16       -75.1148   29.3973  -74.4406 S.3       11 UNK        -0.2615 
     17 C17       -74.5752   30.8317  -75.4333 C.3       11 UNK        -0.0865 
     18 CA        -73.0358   31.0141  -75.4255 C.3       10 UNK         0.0862 
     19 C         -72.5819   32.0535  -76.4917 C.2       10 UNK         0.5551 
     20 N         -71.8748   33.1161  -76.1272 N.am      10 UNK        -0.7319 
     21 O         -72.8619   31.8806  -77.6747 O.2       10 UNK        -0.5018 
     22 N         -72.5411   31.2953  -74.0643 N.am      10 UNK        -0.4509 
     23 C         -71.3491   30.9937  -73.5292 C.2       10 UNK         0.4899 
     24 O         -71.0405   31.4062  -72.4116 O.2       10 UNK        -0.4839 
     25 CA        -70.3498   30.1055  -74.3099 C.3       9 UNK         0.0222 
     26 CB        -68.9620   30.0444  -73.6375 C.3       9 UNK        -0.1966 
     27 N         -70.8461   28.7442  -74.5464 N.am      9 UNK        -0.4218 
     28 C         -71.3364   27.8647  -73.6626 C.2       9 UNK         0.5020 
     29 O         -71.4107   28.0700  -72.4497 O.2       9 UNK        -0.5274 
     30 CA        -71.8233   26.5199  -74.2469 C.3       8 UNK         0.0270 
     31 CB        -72.2954   25.5472  -73.1500 C.3       8 UNK        -0.1976 
     32 N         -72.8932   26.6717  -75.2417 N.am      8 UNK        -0.4313 
     33 C         -72.7530   27.1586  -76.4825 C.2       8 UNK         0.5041 
     34 O         -71.6753   27.5520  -76.9365 O.2       8 UNK        -0.5577 
     35 CA        -74.0301   27.2269  -77.3438 C.3       7 UNK         0.0284 
     36 CB        -73.7612   27.7201  -78.7810 C.3       7 UNK        -0.1958 
     37 N         -74.7818   25.9671  -77.3562 N.am      7 UNK        -0.4454 
     38 C         -74.3543   24.7654  -77.7719 C.2       7 UNK         0.5089 
     39 O         -73.2243   24.5435  -78.2108 O.2       7 UNK        -0.5125 
     40 CA        -75.3863   23.6243  -77.6825 C.3       6 UNK         0.0408 
     41 CB        -74.7936   22.2379  -78.0118 C.3       6 UNK        -0.1791 
     42 N         -76.0923   23.6006  -76.3970 N.am      6 UNK        -0.4762 
     43 C         -75.5684   23.4144  -75.1753 C.2       6 UNK         0.5007 
     44 O         -74.3710   23.2171  -74.9722 O.2       6 UNK        -0.5032 
     45 CA        -76.5318   23.4447  -73.9668 C.3       5 UNK         0.0783 
     46 C46       -76.2412   24.6543  -73.0488 C.3       11 UNK        -0.0857 
     47 S47       -77.0677   24.4696  -71.4359 S.3       11 UNK        -0.2512 
     48 C48       -76.2493   25.7762  -70.4720 C.3       11 UNK         0.0225 
     49 N         -77.9440   23.3999  -74.3621 N.am      5 UNK        -0.4615 
     50 C         -78.5742   22.3041  -74.8031 C.2       4 UNK         0.5053 
     51 O         -78.0556   21.1892  -74.8606 O.2       4 UNK        -0.5105 
     52 CA        -80.0137   22.4958  -75.3009 C.3       4 UNK         0.0263 
     53 CB        -81.0067   22.4107  -74.1321 C.3       4 UNK        -0.1981 
     54 N         -80.1812   23.7612  -76.0249 N.am      4 UNK        -0.4224 
     55 C         -79.6873   23.9915  -77.2515 C.2       3 UNK         0.4895 
     56 O         -79.0975   23.1434  -77.9203 O.2       3 UNK        -0.5091 
     57 CA        -79.8416   25.4104  -77.8219 C.3       3 UNK         0.0250 
     58 CB        -81.1932   25.5670  -78.5362 C.3       3 UNK        -0.1996 
     59 N         -79.6959   26.4487  -76.8004 N.am      3 UNK        -0.4254 
     60 C         -78.5305   26.7850  -76.2269 C.2       2 UNK         0.5004 
     61 O         -77.4498   26.2776  -76.5247 O.2       2 UNK        -0.5226 
     62 CA        -78.5714   27.8553  -75.1230 C.3       2 UNK         0.0269 
     63 CB        -78.3527   29.2478  -75.7354 C.3       2 UNK        -0.1926 
     64 N         -79.8131   27.8705  -74.3463 N.am      2 UNK        -0.4687 
     65 C         -80.3183   26.8352  -73.6628 C.2       1 UNK         0.5165 
     66 O         -79.7828   25.7248  -73.5972 O.2       1 UNK        -0.5079 
     67 H67       -85.0889   24.7305  -74.2561 H         1 UNK         0.0900 
     68 H68       -83.9276   23.7066  -75.0992 H         1 UNK         0.0900 
     69 H69       -83.9402   23.7534  -73.3342 H         1 UNK         0.0900 
     70 H70       -82.8282   25.4629  -72.2577 H         1 UNK         0.2959 
     71 H71       -82.1692   27.9020  -73.5041 H         1 UNK         0.1079 
     72 H72       -80.7448   26.9194  -70.9899 H         1 UNK         0.0837 
     73 H73       -82.4338   27.3328  -70.9418 H         1 UNK         0.0837 
     74 H74       -80.1015   28.7545  -69.2559 H         1 UNK         0.0685 
     75 H75       -79.6945   30.3660  -69.7810 H         1 UNK         0.0685 
     76 H76       -78.5828   26.9378  -69.7268 H         1 UNK         0.1434 
     77 H77       -75.0490   27.6716  -72.0399 H         1 UNK         0.1329 
     78 H78       -78.1175   30.6611  -71.7972 H         1 UNK         0.1335 
     79 H79       -74.7970   30.5303  -72.3371 H         1 UNK         0.0680 
     80 H80       -76.2452   31.0870  -73.1508 H         1 UNK         0.0680 
     81 H81       -75.0759   31.7396  -75.0930 H         1 UNK         0.1032 
     82 H82       -74.9335   30.6616  -76.4506 H         1 UNK         0.1032 
     83 H83       -72.6212   30.0710  -75.7715 H         1 UNK         0.0461 
     84 H84       -71.5822   33.7779  -76.8292 H         1 UNK         0.3453 
     85 H85       -71.6482   33.2761  -75.1585 H         1 UNK         0.3453 
     86 H86       -73.1612   31.8631  -73.5079 H         1 UNK         0.2984 
     87 H87       -70.2119   30.5644  -75.2894 H         1 UNK         0.0554 
     88 H88       -68.5456   31.0441  -73.5074 H         1 UNK         0.0847 
     89 H89       -68.2540   29.4758  -74.2402 H         1 UNK         0.0847 
     90 H90       -69.0095   29.5802  -72.6516 H         1 UNK         0.0847 
     91 H91       -70.8997   28.4542  -75.5225 H         1 UNK         0.3141 
     92 H92       -70.9658   26.0614  -74.7441 H         1 UNK         0.0743 
     93 H93       -71.5010   25.3607  -72.4260 H         1 UNK         0.0784 
     94 H94       -72.5779   24.5814  -73.5673 H         1 UNK         0.0784 
     95 H95       -73.1481   25.9452  -72.5995 H         1 UNK         0.0784 
     96 H96       -73.8175   26.3915  -74.9498 H         1 UNK         0.3213 
     97 H97       -74.6843   27.9602  -76.8739 H         1 UNK         0.0855 
     98 H98       -73.0831   27.0559  -79.3178 H         1 UNK         0.0814 
     99 H99       -73.3061   28.7116  -78.7727 H         1 UNK         0.0814 
    100 H100      -74.6850   27.7934  -79.3546 H         1 UNK         0.0814 
    101 H101      -75.7441   26.0286  -77.0190 H         1 UNK         0.3105 
    102 H102      -76.1445   23.8422  -78.4362 H         1 UNK         0.0547 
    103 H103      -75.5550   21.4597  -77.9606 H         1 UNK         0.0837 
    104 H104      -73.9887   21.9665  -77.3282 H         1 UNK         0.0837 
    105 H105      -74.3806   22.2207  -79.0209 H         1 UNK         0.0837 
    106 H106      -77.0833   23.7950  -76.4480 H         1 UNK         0.3020 
    107 H107      -76.3140   22.5359  -73.4003 H         1 UNK         0.1245 
    108 H108      -76.5616   25.5876  -73.5157 H         1 UNK         0.0781 
    109 H109      -75.1710   24.7471  -72.8619 H         1 UNK         0.0781 
    110 H110      -75.1677   25.7141  -70.6021 H         1 UNK         0.0836 
    111 H111      -76.4368   25.6007  -69.4116 H         1 UNK         0.0836 
    112 H112      -78.4708   24.2620  -74.2629 H         1 UNK         0.3022 
    113 H113      -80.2346   21.6758  -75.9880 H         1 UNK         0.0747 
    114 H114      -82.0325   22.3741  -74.4937 H         1 UNK         0.0793 
    115 H115      -80.8445   21.5039  -73.5476 H         1 UNK         0.0793 
    116 H116      -80.9109   23.2570  -73.4511 H         1 UNK         0.0793 
    117 H117      -80.6156   24.5256  -75.5246 H         1 UNK         0.3047 
    118 H118      -79.0517   25.5541  -78.5627 H         1 UNK         0.0822 
    119 H119      -81.2884   26.5514  -78.9946 H         1 UNK         0.0807 
    120 H120      -82.0326   25.4318  -77.8537 H         1 UNK         0.0807 
    121 H121      -81.2999   24.8284  -79.3320 H         1 UNK         0.0807 
    122 H122      -80.5426   26.8977  -76.4783 H         1 UNK         0.2946 
    123 H123      -77.7520   27.6437  -74.4322 H         1 UNK         0.1144 
    124 H124      -78.2336   30.0056  -74.9607 H         1 UNK         0.0793 
    125 H125      -79.1844   29.5453  -76.3749 H         1 UNK         0.0793 
    126 H126      -77.4501   29.2690  -76.3478 H         1 UNK         0.0793 
    127 H127      -80.3125   28.7480  -74.3252 H         1 UNK         0.2896 
@<TRIPOS>BOND
     1    1    2 1    
     2    1   67 1    
     3    1   68 1    
     4    1   69 1    
     5    2    3 2    
     6    2    4 am   BACKBONE|DICT|INTERRES
     7    4    5 1    
     8    4   70 1    
     9    5    6 1    
    10    5   65 1    
    11    5   71 1    
    12    6    7 1    
    13    6   72 1    
    14    6   73 1    
    15    7    8 1    
    16    8    9 1    
    17    8   74 1    
    18    8   75 1    
    19    9   10 ar   
    20    9   14 ar   
    21   10   11 ar   
    22   10   76 1    
    23   11   12 ar   
    24   11   48 1    
    25   12   13 ar   
    26   12   77 1    
    27   13   14 ar   
    28   13   15 1    
    29   14   78 1    
    30   15   16 1    
    31   15   79 1    
    32   15   80 1    
    33   16   17 1    
    34   17   18 1    
    35   17   81 1    
    36   17   82 1    
    37   18   19 1    
    38   18   22 1    
    39   18   83 1    
    40   19   20 am   BACKBONE|DICT|INTERRES
    41   19   21 2    
    42   20   84 1    
    43   20   85 1    
    44   22   23 am   BACKBONE|DICT|INTERRES
    45   22   86 1    
    46   23   24 2    
    47   23   25 1    
    48   25   26 1    
    49   25   27 1    
    50   25   87 1    
    51   26   88 1    
    52   26   89 1    
    53   26   90 1    
    54   27   28 am   BACKBONE|DICT|INTERRES
    55   27   91 1    
    56   28   29 2    
    57   28   30 1    
    58   30   31 1    
    59   30   32 1    
    60   30   92 1    
    61   31   93 1    
    62   31   94 1    
    63   31   95 1    
    64   32   33 am   BACKBONE|DICT|INTERRES
    65   32   96 1    
    66   33   34 2    
    67   33   35 1    
    68   35   36 1    
    69   35   37 1    
    70   35   97 1    
    71   36   98 1    
    72   36   99 1    
    73   36  100 1    
    74   37   38 am   BACKBONE|DICT|INTERRES
    75   37  101 1    
    76   38   39 2    
    77   38   40 1    
    78   40   41 1    
    79   40   42 1    
    80   40  102 1    
    81   41  103 1    
    82   41  104 1    
    83   41  105 1    
    84   42   43 am   BACKBONE|DICT|INTERRES
    85   42  106 1    
    86   43   44 2    
    87   43   45 1    
    88   45   46 1    
    89   45   49 1    
    90   45  107 1    
    91   46   47 1    
    92   46  108 1    
    93   46  109 1    
    94   47   48 1    
    95   48  110 1    
    96   48  111 1    
    97   49   50 am   BACKBONE|DICT|INTERRES
    98   49  112 1    
    99   50   51 2    
   100   50   52 1    
   101   52   53 1    
   102   52   54 1    
   103   52  113 1    
   104   53  114 1    
   105   53  115 1    
   106   53  116 1    
   107   54   55 am   BACKBONE|DICT|INTERRES
   108   54  117 1    
   109   55   56 2    
   110   55   57 1    
   111   57   58 1    
   112   57   59 1    
   113   57  118 1    
   114   58  119 1    
   115   58  120 1    
   116   58  121 1    
   117   59   60 am   BACKBONE|DICT|INTERRES
   118   59  122 1    
   119   60   61 2    
   120   60   62 1    
   121   62   63 1    
   122   62   64 1    
   123   62  123 1    
   124   63  124 1    
   125   63  125 1    
   126   63  126 1    
   127   64   65 am   BACKBONE|DICT|INTERRES
   128   64  127 1    
   129   65   66 2    
@<TRIPOS>SUBSTRUCTURE
     1 UNK         1 GROUP             0       ****    0 ROOT    
