@<TRIPOS>MOLECULE
3R135
127   129    1
SMALL
USER_CHARGES


@<TRIPOS>ATOM
      1 CA        -78.0029   27.6261  -71.6490 C.3       0 UNK        -0.1998 
      2 C         -79.4832   27.7206  -71.3262 C.2       0 UNK         0.4909 
      3 O         -79.8795   27.4726  -70.1874 O.2       0 UNK        -0.5240 
      4 N         -80.3043   28.0735  -72.3219 N.am      1 UNK        -0.4739 
      5 CA        -81.7547   28.2688  -72.1849 C.3       1 UNK         0.0864 
      6 C6        -82.2878   29.3678  -73.1395 C.3       11 UNK        -0.0881 
      7 S7        -81.4518   30.9735  -72.8948 S.3       11 UNK        -0.2682 
      8 C8        -80.7456   31.2923  -74.5416 C.3       11 UNK         0.0289 
      9 C9        -79.5227   30.4327  -74.8308 C.ar      11 UNK        -0.0687 
     10 C10       -79.6492   29.2436  -75.5562 C.ar      11 UNK        -0.0823 
     11 C11       -78.5204   28.4838  -75.8730 C.ar      11 UNK        -0.0830 
     12 C12       -77.2569   28.9382  -75.4897 C.ar      11 UNK        -0.1021 
     13 C13       -77.1169   30.1037  -74.7316 C.ar      11 UNK        -0.0753 
     14 C14       -78.2558   30.8472  -74.4051 C.ar      11 UNK        -0.0933 
     15 C15       -75.7378   30.5699  -74.2817 C.3       11 UNK         0.0166 
     16 S16       -75.2864   29.8934  -72.6493 S.3       11 UNK        -0.2615 
     17 C17       -74.7454   28.2028  -73.0901 C.3       11 UNK        -0.0865 
     18 CA        -73.2150   27.9574  -72.9836 C.3       10 UNK         0.0862 
     19 C         -72.8127   26.5494  -73.5146 C.2       10 UNK         0.5551 
     20 N         -71.6016   26.3552  -74.0243 N.am      10 UNK        -0.7319 
     21 O         -73.6177   25.6204  -73.4918 O.2       10 UNK        -0.5018 
     22 N         -72.4307   29.0264  -73.6198 N.am      10 UNK        -0.4509 
     23 C         -71.4925   29.7607  -73.0104 C.2       10 UNK         0.4899 
     24 O         -71.2053   29.6520  -71.8167 O.2       10 UNK        -0.4839 
     25 CA        -70.7450   30.7914  -73.8823 C.3       9 UNK         0.0222 
     26 CB        -69.4105   31.2441  -73.2522 C.3       9 UNK        -0.1966 
     27 N         -70.5272   30.3599  -75.2691 N.am      9 UNK        -0.4218 
     28 C         -69.9042   29.2543  -75.7001 C.2       9 UNK         0.5020 
     29 O         -69.4745   28.3709  -74.9549 O.2       9 UNK        -0.5274 
     30 CA        -69.7726   29.1097  -77.2302 C.3       8 UNK         0.0270 
     31 CB        -68.8967   27.9090  -77.6357 C.3       8 UNK        -0.1976 
     32 N         -71.0776   28.9793  -77.8807 N.am      8 UNK        -0.4313 
     33 C         -71.9879   29.9504  -78.0380 C.2       8 UNK         0.5041 
     34 O         -71.7964   31.1204  -77.7012 O.2       8 UNK        -0.5577 
     35 CA        -73.3461   29.5525  -78.6472 C.3       7 UNK         0.0284 
     36 CB        -73.4236   29.9911  -80.1185 C.3       7 UNK        -0.1958 
     37 N         -73.6424   28.1172  -78.5536 N.am      7 UNK        -0.4454 
     38 C         -73.8581   27.4595  -77.4072 C.2       7 UNK         0.5089 
     39 O         -73.8289   27.9926  -76.2971 O.2       7 UNK        -0.5125 
     40 CA        -74.0876   25.9495  -77.5274 C.3       6 UNK         0.0408 
     41 CB        -72.7418   25.2074  -77.5776 C.3       6 UNK        -0.1791 
     42 N         -74.8536   25.4663  -76.3784 N.am      6 UNK        -0.4762 
     43 C         -75.9697   24.7334  -76.4599 C.2       6 UNK         0.5007 
     44 O         -76.4690   24.3679  -77.5282 O.2       6 UNK        -0.5032 
     45 CA        -76.6552   24.3648  -75.1268 C.3       5 UNK         0.0783 
     46 C46       -77.5657   25.5033  -74.5976 C.3       11 UNK        -0.0857 
     47 S47       -79.1059   25.7888  -75.5465 S.3       11 UNK        -0.2512 
     48 C48       -78.6633   27.1789  -76.6414 C.3       11 UNK         0.0225 
     49 N         -77.3813   23.0992  -75.2418 N.am      5 UNK        -0.4615 
     50 C         -76.8097   21.8943  -75.3392 C.2       4 UNK         0.5053 
     51 O         -75.5960   21.7093  -75.2312 O.2       4 UNK        -0.5105 
     52 CA        -77.7558   20.7005  -75.5750 C.3       4 UNK         0.0263 
     53 CB        -77.0088   19.3551  -75.6515 C.3       4 UNK        -0.1981 
     54 N         -78.7837   20.6116  -74.5355 N.am      4 UNK        -0.4224 
     55 C         -79.9197   21.3198  -74.5047 C.2       3 UNK         0.4895 
     56 O         -80.2388   22.1214  -75.3861 O.2       3 UNK        -0.5091 
     57 CA        -80.8669   21.0715  -73.3124 C.3       3 UNK         0.0250 
     58 CB        -80.1449   20.5876  -72.0326 C.3       3 UNK        -0.1996 
     59 N         -81.7208   22.2295  -73.0188 N.am      3 UNK        -0.4254 
     60 C         -81.3275   23.4485  -72.6217 C.2       2 UNK         0.5004 
     61 O         -80.1545   23.7785  -72.4212 O.2       2 UNK        -0.5226 
     62 CA        -82.4540   24.4570  -72.3629 C.3       2 UNK         0.0269 
     63 CB        -83.1983   24.1147  -71.0548 C.3       2 UNK        -0.1926 
     64 N         -81.8812   25.7978  -72.2820 N.am      2 UNK        -0.4687 
     65 C         -82.5564   26.9523  -72.3240 C.2       1 UNK         0.5165 
     66 O         -83.7797   27.0040  -72.4653 O.2       1 UNK        -0.5079 
     67 H67       -77.6496   26.6055  -71.5062 H         1 UNK         0.0900 
     68 H68       -77.4346   28.2807  -70.9888 H         1 UNK         0.0900 
     69 H69       -77.7975   27.9241  -72.6767 H         1 UNK         0.0900 
     70 H70       -79.9222   28.2743  -73.2363 H         1 UNK         0.2959 
     71 H71       -81.9539   28.6156  -71.1683 H         1 UNK         0.1079 
     72 H72       -83.3525   29.5378  -72.9683 H         1 UNK         0.0837 
     73 H73       -82.2035   29.0485  -74.1784 H         1 UNK         0.0837 
     74 H74       -80.4679   32.3458  -74.6005 H         1 UNK         0.0685 
     75 H75       -81.5113   31.1426  -75.3044 H         1 UNK         0.0685 
     76 H76       -80.6237   28.9109  -75.8859 H         1 UNK         0.1434 
     77 H77       -76.3831   28.3731  -75.7770 H         1 UNK         0.1329 
     78 H78       -78.1550   31.7590  -73.8321 H         1 UNK         0.1335 
     79 H79       -75.7196   31.6592  -74.2238 H         1 UNK         0.0680 
     80 H80       -74.9808   30.2945  -75.0181 H         1 UNK         0.0680 
     81 H81       -75.2669   27.5072  -72.4317 H         1 UNK         0.1032 
     82 H82       -75.0886   27.9625  -74.0913 H         1 UNK         0.1032 
     83 H83       -72.9846   27.9254  -71.9178 H         1 UNK         0.0461 
     84 H84       -71.3504   25.4383  -74.3549 H         1 UNK         0.3453 
     85 H85       -70.9361   27.1158  -74.0952 H         1 UNK         0.3453 
     86 H86       -72.5873   29.1376  -74.6128 H         1 UNK         0.2984 
     87 H87       -71.3968   31.6644  -73.9373 H         1 UNK         0.0554 
     88 H88       -69.5696   31.6895  -72.2694 H         1 UNK         0.0847 
     89 H89       -68.9146   31.9946  -73.8676 H         1 UNK         0.0847 
     90 H90       -68.7224   30.4078  -73.1235 H         1 UNK         0.0847 
     91 H91       -70.9199   30.9607  -75.9916 H         1 UNK         0.3141 
     92 H92       -69.2893   30.0158  -77.6019 H         1 UNK         0.0743 
     93 H93       -67.9040   27.9823  -77.1893 H         1 UNK         0.0784 
     94 H94       -69.3310   26.9625  -77.3106 H         1 UNK         0.0784 
     95 H95       -68.7607   27.8632  -78.7164 H         1 UNK         0.0784 
     96 H96       -71.3386   28.0496  -78.1720 H         1 UNK         0.3213 
     97 H97       -74.1165   30.0889  -78.0884 H         1 UNK         0.0855 
     98 H98       -72.6863   29.4747  -80.7345 H         1 UNK         0.0814 
     99 H99       -73.2368   31.0616  -80.2165 H         1 UNK         0.0814 
    100 H100      -74.4104   29.7980  -80.5397 H         1 UNK         0.0814 
    101 H101      -73.6814   27.6053  -79.4240 H         1 UNK         0.3105 
    102 H102      -74.6274   25.7647  -78.4584 H         1 UNK         0.0547 
    103 H103      -72.1380   25.4047  -76.6914 H         1 UNK         0.0837 
    104 H104      -72.8885   24.1294  -77.6472 H         1 UNK         0.0837 
    105 H105      -72.1556   25.5084  -78.4465 H         1 UNK         0.0837 
    106 H106      -74.5030   25.7543  -75.4711 H         1 UNK         0.3020 
    107 H107      -75.8607   24.2120  -74.3918 H         1 UNK         0.1245 
    108 H108      -77.0019   26.4293  -74.5026 H         1 UNK         0.0781 
    109 H109      -77.8727   25.2531  -73.5812 H         1 UNK         0.0781 
    110 H110      -79.4408   27.2868  -77.3990 H         1 UNK         0.0836 
    111 H111      -77.7469   26.9481  -77.1855 H         1 UNK         0.0836 
    112 H112      -78.3866   23.1693  -75.3557 H         1 UNK         0.3022 
    113 H113      -78.2391   20.8630  -76.5410 H         1 UNK         0.0747 
    114 H114      -76.2609   19.3680  -76.4456 H         1 UNK         0.0793 
    115 H115      -77.6921   18.5336  -75.8677 H         1 UNK         0.0793 
    116 H116      -76.4913   19.1254  -74.7192 H         1 UNK         0.0793 
    117 H117      -78.5825   19.9981  -73.7591 H         1 UNK         0.3047 
    118 H118      -81.5422   20.2756  -73.6299 H         1 UNK         0.0822 
    119 H119      -79.6966   19.6034  -72.1717 H         1 UNK         0.0807 
    120 H120      -80.8419   20.4977  -71.1993 H         1 UNK         0.0807 
    121 H121      -79.3537   21.2736  -71.7271 H         1 UNK         0.0807 
    122 H122      -82.7082   22.0801  -73.1738 H         1 UNK         0.2946 
    123 H123      -83.1478   24.4228  -73.2059 H         1 UNK         0.1144 
    124 H124      -83.6121   23.1062  -71.0853 H         1 UNK         0.0793 
    125 H125      -84.0323   24.7930  -70.8755 H         1 UNK         0.0793 
    126 H126      -82.5334   24.1681  -70.1918 H         1 UNK         0.0793 
    127 H127      -80.8716   25.8134  -72.1979 H         1 UNK         0.2896 
@<TRIPOS>BOND
     1    1    2 1    
     2    1   67 1    
     3    1   68 1    
     4    1   69 1    
     5    2    3 2    
     6    2    4 am   BACKBONE|DICT|INTERRES
     7    4    5 1    
     8    4   70 1    
     9    5    6 1    
    10    5   65 1    
    11    5   71 1    
    12    6    7 1    
    13    6   72 1    
    14    6   73 1    
    15    7    8 1    
    16    8    9 1    
    17    8   74 1    
    18    8   75 1    
    19    9   10 ar   
    20    9   14 ar   
    21   10   11 ar   
    22   10   76 1    
    23   11   12 ar   
    24   11   48 1    
    25   12   13 ar   
    26   12   77 1    
    27   13   14 ar   
    28   13   15 1    
    29   14   78 1    
    30   15   16 1    
    31   15   79 1    
    32   15   80 1    
    33   16   17 1    
    34   17   18 1    
    35   17   81 1    
    36   17   82 1    
    37   18   19 1    
    38   18   22 1    
    39   18   83 1    
    40   19   20 am   BACKBONE|DICT|INTERRES
    41   19   21 2    
    42   20   84 1    
    43   20   85 1    
    44   22   23 am   BACKBONE|DICT|INTERRES
    45   22   86 1    
    46   23   24 2    
    47   23   25 1    
    48   25   26 1    
    49   25   27 1    
    50   25   87 1    
    51   26   88 1    
    52   26   89 1    
    53   26   90 1    
    54   27   28 am   BACKBONE|DICT|INTERRES
    55   27   91 1    
    56   28   29 2    
    57   28   30 1    
    58   30   31 1    
    59   30   32 1    
    60   30   92 1    
    61   31   93 1    
    62   31   94 1    
    63   31   95 1    
    64   32   33 am   BACKBONE|DICT|INTERRES
    65   32   96 1    
    66   33   34 2    
    67   33   35 1    
    68   35   36 1    
    69   35   37 1    
    70   35   97 1    
    71   36   98 1    
    72   36   99 1    
    73   36  100 1    
    74   37   38 am   BACKBONE|DICT|INTERRES
    75   37  101 1    
    76   38   39 2    
    77   38   40 1    
    78   40   41 1    
    79   40   42 1    
    80   40  102 1    
    81   41  103 1    
    82   41  104 1    
    83   41  105 1    
    84   42   43 am   BACKBONE|DICT|INTERRES
    85   42  106 1    
    86   43   44 2    
    87   43   45 1    
    88   45   46 1    
    89   45   49 1    
    90   45  107 1    
    91   46   47 1    
    92   46  108 1    
    93   46  109 1    
    94   47   48 1    
    95   48  110 1    
    96   48  111 1    
    97   49   50 am   BACKBONE|DICT|INTERRES
    98   49  112 1    
    99   50   51 2    
   100   50   52 1    
   101   52   53 1    
   102   52   54 1    
   103   52  113 1    
   104   53  114 1    
   105   53  115 1    
   106   53  116 1    
   107   54   55 am   BACKBONE|DICT|INTERRES
   108   54  117 1    
   109   55   56 2    
   110   55   57 1    
   111   57   58 1    
   112   57   59 1    
   113   57  118 1    
   114   58  119 1    
   115   58  120 1    
   116   58  121 1    
   117   59   60 am   BACKBONE|DICT|INTERRES
   118   59  122 1    
   119   60   61 2    
   120   60   62 1    
   121   62   63 1    
   122   62   64 1    
   123   62  123 1    
   124   63  124 1    
   125   63  125 1    
   126   63  126 1    
   127   64   65 am   BACKBONE|DICT|INTERRES
   128   64  127 1    
   129   65   66 2    
@<TRIPOS>SUBSTRUCTURE
     1 UNK         1 GROUP             0       ****    0 ROOT    
