@<TRIPOS>MOLECULE
3R135
127   129    1
SMALL
USER_CHARGES


@<TRIPOS>ATOM
      1 CA        -77.7694   28.5625  -74.9657 C.3       0 UNK        -0.1998 
      2 C         -78.7778   29.6852  -75.1906 C.2       0 UNK         0.4909 
      3 O         -78.5563   30.5294  -76.0565 O.2       0 UNK        -0.5240 
      4 N         -79.8868   29.7550  -74.4410 N.am      1 UNK        -0.4739 
      5 CA        -80.3773   28.7542  -73.4874 C.3       1 UNK         0.0864 
      6 C6        -81.3992   29.3973  -72.5148 C.3       11 UNK        -0.0881 
      7 S7        -81.8077   28.3471  -71.0769 S.3       11 UNK        -0.2682 
      8 C8        -80.7122   29.0193  -69.7858 C.3       11 UNK         0.0289 
      9 C9        -79.2482   28.7310  -70.0824 C.ar      11 UNK        -0.0687 
     10 C10       -78.7623   27.4225  -69.9994 C.ar      11 UNK        -0.0823 
     11 C11       -77.4265   27.1410  -70.2984 C.ar      11 UNK        -0.0830 
     12 C12       -76.5697   28.1843  -70.6616 C.ar      11 UNK        -0.1021 
     13 C13       -77.0401   29.4980  -70.7385 C.ar      11 UNK        -0.0753 
     14 C14       -78.3811   29.7661  -70.4467 C.ar      11 UNK        -0.0933 
     15 C15       -76.1007   30.6257  -71.1390 C.3       11 UNK         0.0166 
     16 S16       -76.4285   31.1655  -72.8416 S.3       11 UNK        -0.2615 
     17 C17       -75.0250   32.2835  -73.1632 C.3       11 UNK        -0.0865 
     18 CA        -74.0549   31.6969  -74.2215 C.3       10 UNK         0.0862 
     19 C         -73.0266   32.7658  -74.6705 C.2       10 UNK         0.5551 
     20 N         -73.3208   33.5019  -75.7330 N.am      10 UNK        -0.7319 
     21 O         -71.9857   32.9590  -74.0441 O.2       10 UNK        -0.5018 
     22 N         -73.3572   30.5087  -73.7119 N.am      10 UNK        -0.4509 
     23 C         -73.2185   29.3535  -74.3688 C.2       10 UNK         0.4899 
     24 O         -73.7338   29.1104  -75.4638 O.2       10 UNK        -0.4839 
     25 CA        -72.3511   28.2967  -73.6672 C.3       9 UNK         0.0222 
     26 CB        -73.0483   27.7527  -72.4078 C.3       9 UNK        -0.1966 
     27 N         -72.1059   27.1866  -74.5803 N.am      9 UNK        -0.4218 
     28 C         -70.9313   26.6005  -74.8310 C.2       9 UNK         0.5020 
     29 O         -69.8766   26.8942  -74.2658 O.2       9 UNK        -0.5274 
     30 CA        -70.9325   25.5018  -75.9091 C.3       8 UNK         0.0270 
     31 CB        -71.3580   24.1505  -75.3113 C.3       8 UNK        -0.1976 
     32 N         -71.8023   25.8308  -77.0415 N.am      8 UNK        -0.4313 
     33 C         -71.5554   26.7879  -77.9451 C.2       8 UNK         0.5041 
     34 O         -70.5138   27.4453  -77.9685 O.2       8 UNK        -0.5577 
     35 CA        -72.6434   27.0882  -78.9946 C.3       7 UNK         0.0284 
     36 CB        -72.4584   26.2226  -80.2569 C.3       7 UNK        -0.1958 
     37 N         -74.0207   27.0272  -78.4809 N.am      7 UNK        -0.4454 
     38 C         -74.7205   25.9589  -78.0773 C.2       7 UNK         0.5089 
     39 O         -74.3032   24.7995  -78.1217 O.2       7 UNK        -0.5125 
     40 CA        -76.1139   26.2535  -77.4942 C.3       6 UNK         0.0408 
     41 CB        -77.2056   25.9953  -78.5435 C.3       6 UNK        -0.1791 
     42 N         -76.4238   25.4830  -76.2865 N.am      6 UNK        -0.4762 
     43 C         -75.6559   25.3703  -75.1916 C.2       6 UNK         0.5007 
     44 O         -74.5501   25.8940  -75.0711 O.2       6 UNK        -0.5032 
     45 CA        -76.2279   24.5614  -74.0143 C.3       5 UNK         0.0783 
     46 C46       -76.9854   25.5094  -73.0549 C.3       11 UNK        -0.0857 
     47 S47       -77.6073   24.6721  -71.5598 S.3       11 UNK        -0.2512 
     48 C48       -76.9104   25.7092  -70.2332 C.3       11 UNK         0.0225 
     49 N         -77.0759   23.4676  -74.4939 N.am      5 UNK        -0.4615 
     50 C         -76.6315   22.2522  -74.8383 C.2       4 UNK         0.5053 
     51 O         -75.4519   21.9092  -74.7570 O.2       4 UNK        -0.5105 
     52 CA        -77.6736   21.2343  -75.3405 C.3       4 UNK         0.0263 
     53 CB        -78.1056   20.3064  -74.1933 C.3       4 UNK        -0.1981 
     54 N         -78.8631   21.8659  -75.9165 N.am      4 UNK        -0.4224 
     55 C         -78.9093   22.4431  -77.1258 C.2       3 UNK         0.4895 
     56 O         -77.9819   22.4150  -77.9339 O.2       3 UNK        -0.5091 
     57 CA        -80.1988   23.2078  -77.4856 C.3       3 UNK         0.0250 
     58 CB        -81.1552   22.3047  -78.2808 C.3       3 UNK        -0.1996 
     59 N         -80.9085   23.7696  -76.3272 N.am      3 UNK        -0.4254 
     60 C         -80.3917   24.6758  -75.4861 C.2       2 UNK         0.5004 
     61 O         -79.2458   25.1179  -75.5891 O.2       2 UNK        -0.5226 
     62 CA        -81.2681   25.0884  -74.2918 C.3       2 UNK         0.0269 
     63 CB        -81.2416   23.9949  -73.2105 C.3       2 UNK        -0.1926 
     64 N         -80.8176   26.3464  -73.6915 N.am      2 UNK        -0.4687 
     65 C         -80.9791   27.5527  -74.2492 C.2       1 UNK         0.5165 
     66 O         -81.5911   27.7400  -75.3045 O.2       1 UNK        -0.5079 
     67 H67       -78.1490   27.6224  -75.3633 H         1 UNK         0.0900 
     68 H68       -77.5339   28.4401  -73.9094 H         1 UNK         0.0900 
     69 H69       -76.8316   28.7911  -75.4717 H         1 UNK         0.0900 
     70 H70       -80.5342   30.5053  -74.6338 H         1 UNK         0.2959 
     71 H71       -79.5322   28.4006  -72.8955 H         1 UNK         0.1079 
     72 H72       -81.0106   30.3471  -72.1433 H         1 UNK         0.0837 
     73 H73       -82.3260   29.6443  -73.0366 H         1 UNK         0.0837 
     74 H74       -80.8891   30.0906  -69.6782 H         1 UNK         0.0685 
     75 H75       -80.9781   28.5682  -68.8287 H         1 UNK         0.0685 
     76 H76       -79.4306   26.6185  -69.7216 H         1 UNK         0.1434 
     77 H77       -75.5347   27.9732  -70.8877 H         1 UNK         0.1329 
     78 H78       -78.7487   30.7808  -70.5158 H         1 UNK         0.1335 
     79 H79       -76.2244   31.4700  -70.4592 H         1 UNK         0.0680 
     80 H80       -75.0611   30.3053  -71.0551 H         1 UNK         0.0680 
     81 H81       -74.5003   32.5131  -72.2339 H         1 UNK         0.1032 
     82 H82       -75.4436   33.2293  -73.5128 H         1 UNK         0.1032 
     83 H83       -74.6479   31.4238  -75.0973 H         1 UNK         0.0461 
     84 H84       -72.6712   34.2125  -76.0324 H         1 UNK         0.3453 
     85 H85       -74.1764   33.3576  -76.2468 H         1 UNK         0.3453 
     86 H86       -72.8484   30.6440  -72.8506 H         1 UNK         0.2984 
     87 H87       -71.4076   28.7689  -73.3860 H         1 UNK         0.0554 
     88 H88       -72.4427   26.9888  -71.9200 H         1 UNK         0.0847 
     89 H89       -74.0136   27.3072  -72.6499 H         1 UNK         0.0847 
     90 H90       -73.2212   28.5418  -71.6758 H         1 UNK         0.0847 
     91 H91       -72.9343   26.8605  -75.0755 H         1 UNK         0.3141 
     92 H92       -69.9115   25.4018  -76.2836 H         1 UNK         0.0743 
     93 H93       -72.3835   24.1755  -74.9405 H         1 UNK         0.0784 
     94 H94       -71.2892   23.3513  -76.0496 H         1 UNK         0.0784 
     95 H95       -70.7149   23.8749  -74.4744 H         1 UNK         0.0784 
     96 H96       -72.6814   25.3273  -77.1218 H         1 UNK         0.3213 
     97 H97       -72.4969   28.1275  -79.2940 H         1 UNK         0.0855 
     98 H98       -71.4718   26.3829  -80.6935 H         1 UNK         0.0814 
     99 H99       -73.1949   26.4716  -81.0209 H         1 UNK         0.0814 
    100 H100      -72.5438   25.1572  -80.0417 H         1 UNK         0.0814 
    101 H101      -74.4516   27.9322  -78.3452 H         1 UNK         0.3105 
    102 H102      -76.1521   27.3072  -77.2141 H         1 UNK         0.0547 
    103 H103      -77.0344   26.5885  -79.4427 H         1 UNK         0.0837 
    104 H104      -77.2303   24.9470  -78.8439 H         1 UNK         0.0837 
    105 H105      -78.1930   26.2590  -78.1636 H         1 UNK         0.0837 
    106 H106      -77.3475   25.0656  -76.2495 H         1 UNK         0.3020 
    107 H107      -75.3774   24.1412  -73.4720 H         1 UNK         0.1245 
    108 H108      -77.8398   25.9672  -73.5527 H         1 UNK         0.0781 
    109 H109      -76.3332   26.3325  -72.7609 H         1 UNK         0.0781 
    110 H110      -75.8210   25.6821  -70.2913 H         1 UNK         0.0836 
    111 H111      -77.1754   25.2749  -69.2682 H         1 UNK         0.0836 
    112 H112      -78.0490   23.7016  -74.6398 H         1 UNK         0.3022 
    113 H113      -77.1955   20.6257  -76.1114 H         1 UNK         0.0747 
    114 H114      -78.7956   19.5377  -74.5420 H         1 UNK         0.0793 
    115 H115      -77.2446   19.7944  -73.7611 H         1 UNK         0.0793 
    116 H116      -78.5935   20.8580  -73.3884 H         1 UNK         0.0793 
    117 H117      -79.6833   21.9160  -75.3306 H         1 UNK         0.3047 
    118 H118      -79.9070   24.0433  -78.1257 H         1 UNK         0.0822 
    119 H119      -82.0265   22.8587  -78.6308 H         1 UNK         0.0807 
    120 H120      -81.5083   21.4632  -77.6833 H         1 UNK         0.0807 
    121 H121      -80.6609   21.8935  -79.1624 H         1 UNK         0.0807 
    122 H122      -81.8509   23.4397  -76.1727 H         1 UNK         0.2946 
    123 H123      -82.2941   25.2199  -74.6436 H         1 UNK         0.1144 
    124 H124      -81.6361   23.0517  -73.5903 H         1 UNK         0.0793 
    125 H125      -81.8525   24.2731  -72.3513 H         1 UNK         0.0793 
    126 H126      -80.2295   23.8040  -72.8519 H         1 UNK         0.0793 
    127 H127      -80.3125   26.2718  -72.8203 H         1 UNK         0.2896 
@<TRIPOS>BOND
     1    1    2 1    
     2    1   67 1    
     3    1   68 1    
     4    1   69 1    
     5    2    3 2    
     6    2    4 am   BACKBONE|DICT|INTERRES
     7    4    5 1    
     8    4   70 1    
     9    5    6 1    
    10    5   65 1    
    11    5   71 1    
    12    6    7 1    
    13    6   72 1    
    14    6   73 1    
    15    7    8 1    
    16    8    9 1    
    17    8   74 1    
    18    8   75 1    
    19    9   10 ar   
    20    9   14 ar   
    21   10   11 ar   
    22   10   76 1    
    23   11   12 ar   
    24   11   48 1    
    25   12   13 ar   
    26   12   77 1    
    27   13   14 ar   
    28   13   15 1    
    29   14   78 1    
    30   15   16 1    
    31   15   79 1    
    32   15   80 1    
    33   16   17 1    
    34   17   18 1    
    35   17   81 1    
    36   17   82 1    
    37   18   19 1    
    38   18   22 1    
    39   18   83 1    
    40   19   20 am   BACKBONE|DICT|INTERRES
    41   19   21 2    
    42   20   84 1    
    43   20   85 1    
    44   22   23 am   BACKBONE|DICT|INTERRES
    45   22   86 1    
    46   23   24 2    
    47   23   25 1    
    48   25   26 1    
    49   25   27 1    
    50   25   87 1    
    51   26   88 1    
    52   26   89 1    
    53   26   90 1    
    54   27   28 am   BACKBONE|DICT|INTERRES
    55   27   91 1    
    56   28   29 2    
    57   28   30 1    
    58   30   31 1    
    59   30   32 1    
    60   30   92 1    
    61   31   93 1    
    62   31   94 1    
    63   31   95 1    
    64   32   33 am   BACKBONE|DICT|INTERRES
    65   32   96 1    
    66   33   34 2    
    67   33   35 1    
    68   35   36 1    
    69   35   37 1    
    70   35   97 1    
    71   36   98 1    
    72   36   99 1    
    73   36  100 1    
    74   37   38 am   BACKBONE|DICT|INTERRES
    75   37  101 1    
    76   38   39 2    
    77   38   40 1    
    78   40   41 1    
    79   40   42 1    
    80   40  102 1    
    81   41  103 1    
    82   41  104 1    
    83   41  105 1    
    84   42   43 am   BACKBONE|DICT|INTERRES
    85   42  106 1    
    86   43   44 2    
    87   43   45 1    
    88   45   46 1    
    89   45   49 1    
    90   45  107 1    
    91   46   47 1    
    92   46  108 1    
    93   46  109 1    
    94   47   48 1    
    95   48  110 1    
    96   48  111 1    
    97   49   50 am   BACKBONE|DICT|INTERRES
    98   49  112 1    
    99   50   51 2    
   100   50   52 1    
   101   52   53 1    
   102   52   54 1    
   103   52  113 1    
   104   53  114 1    
   105   53  115 1    
   106   53  116 1    
   107   54   55 am   BACKBONE|DICT|INTERRES
   108   54  117 1    
   109   55   56 2    
   110   55   57 1    
   111   57   58 1    
   112   57   59 1    
   113   57  118 1    
   114   58  119 1    
   115   58  120 1    
   116   58  121 1    
   117   59   60 am   BACKBONE|DICT|INTERRES
   118   59  122 1    
   119   60   61 2    
   120   60   62 1    
   121   62   63 1    
   122   62   64 1    
   123   62  123 1    
   124   63  124 1    
   125   63  125 1    
   126   63  126 1    
   127   64   65 am   BACKBONE|DICT|INTERRES
   128   64  127 1    
   129   65   66 2    
@<TRIPOS>SUBSTRUCTURE
     1 UNK         1 GROUP             0       ****    0 ROOT    
