@<TRIPOS>MOLECULE
3R135
127   129    1
SMALL
USER_CHARGES


@<TRIPOS>ATOM
      1 CA        -82.7420   22.9463  -72.1557 C.3       0 UNK        -0.1998 
      2 C         -81.8424   24.0124  -72.7599 C.2       0 UNK         0.4909 
      3 O         -80.8681   23.6757  -73.4353 O.2       0 UNK        -0.5240 
      4 N         -82.1710   25.2955  -72.5408 N.am      1 UNK        -0.4739 
      5 CA        -81.4118   26.4778  -72.9860 C.3       1 UNK         0.0864 
      6 C6        -80.0517   26.6200  -72.2570 C.3       11 UNK        -0.0881 
      7 S7        -80.1728   26.7985  -70.4430 S.3       11 UNK        -0.2682 
      8 C8        -79.8136   28.5691  -70.1691 C.3       11 UNK         0.0289 
      9 C9        -78.5396   29.0351  -70.8649 C.ar      11 UNK        -0.0687 
     10 C10       -78.6246   29.9034  -71.9579 C.ar      11 UNK        -0.0823 
     11 C11       -77.4748   30.2970  -72.6475 C.ar      11 UNK        -0.0830 
     12 C12       -76.2285   29.8325  -72.2206 C.ar      11 UNK        -0.1021 
     13 C13       -76.1276   28.9701  -71.1250 C.ar      11 UNK        -0.0753 
     14 C14       -77.2858   28.5781  -70.4453 C.ar      11 UNK        -0.0933 
     15 C15       -74.7640   28.4458  -70.7074 C.3       11 UNK         0.0166 
     16 S16       -73.7847   29.7456  -69.8939 S.3       11 UNK        -0.2615 
     17 C17       -72.0857   29.2387  -70.3278 C.3       11 UNK        -0.0865 
     18 CA        -71.5108   30.0686  -71.5057 C.3       10 UNK         0.0862 
     19 C         -69.9988   29.7729  -71.6995 C.2       10 UNK         0.5551 
     20 N         -69.1321   30.5146  -71.0240 N.am      10 UNK        -0.7319 
     21 O         -69.6087   28.8549  -72.4189 O.2       10 UNK        -0.5018 
     22 N         -72.2729   29.8463  -72.7414 N.am      10 UNK        -0.4509 
     23 C         -72.2152   30.6081  -73.8374 C.2       10 UNK         0.4899 
     24 O         -71.5791   31.6609  -73.9104 O.2       10 UNK        -0.4839 
     25 CA        -72.9854   30.0777  -75.0625 C.3       9 UNK         0.0222 
     26 CB        -73.0745   31.1075  -76.2033 C.3       9 UNK        -0.1966 
     27 N         -72.3884   28.8416  -75.5757 N.am      9 UNK        -0.4218 
     28 C         -72.5312   27.6335  -75.0173 C.2       9 UNK         0.5020 
     29 O         -73.2005   27.4285  -74.0029 O.2       9 UNK        -0.5274 
     30 CA        -71.7790   26.4724  -75.6741 C.3       8 UNK         0.0270 
     31 CB        -70.8345   25.7846  -74.6691 C.3       8 UNK        -0.1976 
     32 N         -72.7445   25.5149  -76.2084 N.am      8 UNK        -0.4313 
     33 C         -72.4863   24.6398  -77.1893 C.2       8 UNK         0.5041 
     34 O         -71.3845   24.5237  -77.7290 O.2       8 UNK        -0.5577 
     35 CA        -73.6487   23.7538  -77.6712 C.3       7 UNK         0.0284 
     36 CB        -73.9684   22.6468  -76.6528 C.3       7 UNK        -0.1958 
     37 N         -74.8545   24.5287  -77.9670 N.am      7 UNK        -0.4454 
     38 C         -74.9820   25.3713  -79.0029 C.2       7 UNK         0.5089 
     39 O         -74.1233   25.5276  -79.8716 O.2       7 UNK        -0.5125 
     40 CA        -76.2798   26.1956  -79.0766 C.3       6 UNK         0.0408 
     41 CB        -77.3843   25.4253  -79.8173 C.3       6 UNK        -0.1791 
     42 N         -76.7552   26.5975  -77.7516 N.am      6 UNK        -0.4762 
     43 C         -76.1439   27.5089  -76.9782 C.2       6 UNK         0.5007 
     44 O         -75.1674   28.1626  -77.3446 O.2       6 UNK        -0.5032 
     45 CA        -76.6957   27.6942  -75.5480 C.3       5 UNK         0.0783 
     46 C46       -77.7258   28.8519  -75.4862 C.3       11 UNK        -0.0857 
     47 S47       -76.9050   30.4825  -75.3865 S.3       11 UNK        -0.2512 
     48 C48       -77.5917   31.2119  -73.8606 C.3       11 UNK         0.0225 
     49 N         -77.2255   26.4372  -74.9984 N.am      5 UNK        -0.4615 
     50 C         -76.4477   25.3852  -74.6948 C.2       4 UNK         0.5053 
     51 O         -75.2290   25.3769  -74.8499 O.2       4 UNK        -0.5105 
     52 CA        -77.1212   24.0988  -74.1941 C.3       4 UNK         0.0263 
     53 CB        -77.2941   24.1100  -72.6643 C.3       4 UNK        -0.1981 
     54 N         -78.3815   23.7955  -74.8821 N.am      4 UNK        -0.4224 
     55 C         -78.4314   23.4322  -76.1742 C.2       3 UNK         0.4895 
     56 O         -77.4506   23.4383  -76.9186 O.2       3 UNK        -0.5091 
     57 CA        -79.7866   22.9815  -76.7335 C.3       3 UNK         0.0250 
     58 CB        -80.1838   21.6056  -76.1726 C.3       3 UNK        -0.1996 
     59 N         -80.8282   23.9592  -76.4322 N.am      3 UNK        -0.4254 
     60 C         -81.1898   24.9560  -77.2526 C.2       2 UNK         0.5004 
     61 O         -80.7311   25.1130  -78.3845 O.2       2 UNK        -0.5226 
     62 CA        -82.2349   25.9607  -76.7274 C.3       2 UNK         0.0269 
     63 CB        -83.6393   25.5843  -77.2263 C.3       2 UNK        -0.1926 
     64 N         -82.2620   26.0902  -75.2660 N.am      2 UNK        -0.4687 
     65 C         -81.2290   26.5129  -74.5229 C.2       1 UNK         0.5165 
     66 O         -80.1518   26.8589  -75.0114 O.2       1 UNK        -0.5079 
     67 H67       -83.1546   22.3151  -72.9421 H         1 UNK         0.0900 
     68 H68       -82.1679   22.3153  -71.4779 H         1 UNK         0.0900 
     69 H69       -83.5707   23.3801  -71.5965 H         1 UNK         0.0900 
     70 H70       -82.9890   25.4999  -71.9833 H         1 UNK         0.2959 
     71 H71       -82.0143   27.3539  -72.7412 H         1 UNK         0.1079 
     72 H72       -79.4568   25.7337  -72.4540 H         1 UNK         0.0837 
     73 H73       -79.4775   27.4476  -72.6681 H         1 UNK         0.0837 
     74 H74       -80.6719   29.1540  -70.5033 H         1 UNK         0.0685 
     75 H75       -79.7226   28.7484  -69.0970 H         1 UNK         0.0685 
     76 H76       -79.5933   30.2525  -72.2888 H         1 UNK         0.1434 
     77 H77       -75.3346   30.1331  -72.7486 H         1 UNK         0.1329 
     78 H78       -77.2176   27.9002  -69.6055 H         1 UNK         0.1335 
     79 H79       -74.2462   28.0784  -71.5937 H         1 UNK         0.0680 
     80 H80       -74.8603   27.5935  -70.0331 H         1 UNK         0.0680 
     81 H81       -71.4726   29.3751  -69.4347 H         1 UNK         0.1032 
     82 H82       -72.0542   28.1700  -70.5498 H         1 UNK         0.1032 
     83 H83       -71.6105   31.1261  -71.2511 H         1 UNK         0.0461 
     84 H84       -68.1463   30.3288  -71.1234 H         1 UNK         0.3453 
     85 H85       -69.4421   31.2641  -70.4248 H         1 UNK         0.3453 
     86 H86       -72.7437   28.9513  -72.8282 H         1 UNK         0.2984 
     87 H87       -74.0050   29.8611  -74.7395 H         1 UNK         0.0554 
     88 H88       -73.5380   32.0321  -75.8567 H         1 UNK         0.0847 
     89 H89       -73.6853   30.7317  -77.0249 H         1 UNK         0.0847 
     90 H90       -72.0915   31.3622  -76.6013 H         1 UNK         0.0847 
     91 H91       -71.8041   28.9328  -76.3942 H         1 UNK         0.3141 
     92 H92       -71.1805   26.8676  -76.4979 H         1 UNK         0.0743 
     93 H93       -70.1459   26.5052  -74.2252 H         1 UNK         0.0784 
     94 H94       -71.3885   25.3176  -73.8538 H         1 UNK         0.0784 
     95 H95       -70.2322   25.0135  -75.1495 H         1 UNK         0.0784 
     96 H96       -73.6725   25.5400  -75.7805 H         1 UNK         0.3213 
     97 H97       -73.3322   23.2689  -78.5974 H         1 UNK         0.0855 
     98 H98       -74.2748   23.0526  -75.6892 H         1 UNK         0.0814 
     99 H99       -73.0941   22.0191  -76.4762 H         1 UNK         0.0814 
    100 H100      -74.7679   21.9977  -77.0107 H         1 UNK         0.0814 
    101 H101      -75.6418   24.4150  -77.3378 H         1 UNK         0.3105 
    102 H102      -76.0656   27.1019  -79.6472 H         1 UNK         0.0547 
    103 H103      -78.2915   26.0225  -79.9112 H         1 UNK         0.0837 
    104 H104      -77.0638   25.1625  -80.8261 H         1 UNK         0.0837 
    105 H105      -77.6484   24.4975  -79.3102 H         1 UNK         0.0837 
    106 H106      -77.5365   26.0835  -77.3691 H         1 UNK         0.3020 
    107 H107      -75.8448   27.9641  -74.9164 H         1 UNK         0.1245 
    108 H108      -78.3665   28.7331  -74.6136 H         1 UNK         0.0781 
    109 H109      -78.4025   28.8369  -76.3429 H         1 UNK         0.0781 
    110 H110      -78.6330   31.4801  -74.0456 H         1 UNK         0.0836 
    111 H111      -77.0689   32.1461  -73.6513 H         1 UNK         0.0836 
    112 H112      -78.2339   26.3786  -74.8912 H         1 UNK         0.3022 
    113 H113      -76.4462   23.2715  -74.4252 H         1 UNK         0.0747 
    114 H114      -78.1528   23.5231  -72.3371 H         1 UNK         0.0793 
    115 H115      -76.4121   23.6836  -72.1855 H         1 UNK         0.0793 
    116 H116      -77.3938   25.1189  -72.2637 H         1 UNK         0.0793 
    117 H117      -79.2333   23.7694  -74.3242 H         1 UNK         0.3047 
    118 H118      -79.6803   22.8766  -77.8157 H         1 UNK         0.0822 
    119 H119      -79.4195   20.8599  -76.3953 H         1 UNK         0.0807 
    120 H120      -81.1164   21.2546  -76.6146 H         1 UNK         0.0807 
    121 H121      -80.3147   21.6240  -75.0902 H         1 UNK         0.0807 
    122 H122      -81.2084   23.9370  -75.4932 H         1 UNK         0.2946 
    123 H123      -81.9720   26.9371  -77.1409 H         1 UNK         0.1144 
    124 H124      -84.3763   26.3368  -76.9453 H         1 UNK         0.0793 
    125 H125      -83.9667   24.6245  -76.8243 H         1 UNK         0.0793 
    126 H126      -83.6588   25.5056  -78.3143 H         1 UNK         0.0793 
    127 H127      -83.1057   25.7979  -74.7939 H         1 UNK         0.2896 
@<TRIPOS>BOND
     1    1    2 1    
     2    1   67 1    
     3    1   68 1    
     4    1   69 1    
     5    2    3 2    
     6    2    4 am   BACKBONE|DICT|INTERRES
     7    4    5 1    
     8    4   70 1    
     9    5    6 1    
    10    5   65 1    
    11    5   71 1    
    12    6    7 1    
    13    6   72 1    
    14    6   73 1    
    15    7    8 1    
    16    8    9 1    
    17    8   74 1    
    18    8   75 1    
    19    9   10 ar   
    20    9   14 ar   
    21   10   11 ar   
    22   10   76 1    
    23   11   12 ar   
    24   11   48 1    
    25   12   13 ar   
    26   12   77 1    
    27   13   14 ar   
    28   13   15 1    
    29   14   78 1    
    30   15   16 1    
    31   15   79 1    
    32   15   80 1    
    33   16   17 1    
    34   17   18 1    
    35   17   81 1    
    36   17   82 1    
    37   18   19 1    
    38   18   22 1    
    39   18   83 1    
    40   19   20 am   BACKBONE|DICT|INTERRES
    41   19   21 2    
    42   20   84 1    
    43   20   85 1    
    44   22   23 am   BACKBONE|DICT|INTERRES
    45   22   86 1    
    46   23   24 2    
    47   23   25 1    
    48   25   26 1    
    49   25   27 1    
    50   25   87 1    
    51   26   88 1    
    52   26   89 1    
    53   26   90 1    
    54   27   28 am   BACKBONE|DICT|INTERRES
    55   27   91 1    
    56   28   29 2    
    57   28   30 1    
    58   30   31 1    
    59   30   32 1    
    60   30   92 1    
    61   31   93 1    
    62   31   94 1    
    63   31   95 1    
    64   32   33 am   BACKBONE|DICT|INTERRES
    65   32   96 1    
    66   33   34 2    
    67   33   35 1    
    68   35   36 1    
    69   35   37 1    
    70   35   97 1    
    71   36   98 1    
    72   36   99 1    
    73   36  100 1    
    74   37   38 am   BACKBONE|DICT|INTERRES
    75   37  101 1    
    76   38   39 2    
    77   38   40 1    
    78   40   41 1    
    79   40   42 1    
    80   40  102 1    
    81   41  103 1    
    82   41  104 1    
    83   41  105 1    
    84   42   43 am   BACKBONE|DICT|INTERRES
    85   42  106 1    
    86   43   44 2    
    87   43   45 1    
    88   45   46 1    
    89   45   49 1    
    90   45  107 1    
    91   46   47 1    
    92   46  108 1    
    93   46  109 1    
    94   47   48 1    
    95   48  110 1    
    96   48  111 1    
    97   49   50 am   BACKBONE|DICT|INTERRES
    98   49  112 1    
    99   50   51 2    
   100   50   52 1    
   101   52   53 1    
   102   52   54 1    
   103   52  113 1    
   104   53  114 1    
   105   53  115 1    
   106   53  116 1    
   107   54   55 am   BACKBONE|DICT|INTERRES
   108   54  117 1    
   109   55   56 2    
   110   55   57 1    
   111   57   58 1    
   112   57   59 1    
   113   57  118 1    
   114   58  119 1    
   115   58  120 1    
   116   58  121 1    
   117   59   60 am   BACKBONE|DICT|INTERRES
   118   59  122 1    
   119   60   61 2    
   120   60   62 1    
   121   62   63 1    
   122   62   64 1    
   123   62  123 1    
   124   63  124 1    
   125   63  125 1    
   126   63  126 1    
   127   64   65 am   BACKBONE|DICT|INTERRES
   128   64  127 1    
   129   65   66 2    
@<TRIPOS>SUBSTRUCTURE
     1 UNK         1 GROUP             0       ****    0 ROOT    
