@<TRIPOS>MOLECULE
3R135
127   129    1
SMALL
USER_CHARGES


@<TRIPOS>ATOM
      1 CA        -76.9948   22.3119  -71.3087 C.3       0 UNK        -0.1998 
      2 C         -78.4468   22.7649  -71.3151 C.2       0 UNK         0.4909 
      3 O         -79.3386   21.9750  -71.0040 O.2       0 UNK        -0.5240 
      4 N         -78.6870   24.0370  -71.6591 N.am      1 UNK        -0.4739 
      5 CA        -80.0156   24.6636  -71.6964 C.3       1 UNK         0.0864 
      6 C6        -79.9150   26.2015  -71.8322 C.3       11 UNK        -0.0881 
      7 S7        -79.0523   26.9699  -70.4222 S.3       11 UNK        -0.2682 
      8 C8        -79.6343   28.6898  -70.5532 C.3       11 UNK         0.0289 
      9 C9        -78.9403   29.4287  -71.6876 C.ar      11 UNK        -0.0687 
     10 C10       -79.4865   29.4311  -72.9750 C.ar      11 UNK        -0.0823 
     11 C11       -78.8407   30.0979  -74.0219 C.ar      11 UNK        -0.0830 
     12 C12       -77.6552   30.7941  -73.7606 C.ar      11 UNK        -0.1021 
     13 C13       -77.0889   30.7783  -72.4834 C.ar      11 UNK        -0.0753 
     14 C14       -77.7401   30.1029  -71.4484 C.ar      11 UNK        -0.0933 
     15 C15       -75.7475   31.4450  -72.2345 C.3       11 UNK         0.0166 
     16 S16       -74.4283   30.1964  -72.2550 S.3       11 UNK        -0.2615 
     17 C17       -72.9401   31.2411  -72.4109 C.3       11 UNK        -0.0865 
     18 CA        -72.4768   31.4358  -73.8811 C.3       10 UNK         0.0862 
     19 C         -71.1426   32.2382  -73.9242 C.2       10 UNK         0.5551 
     20 N         -70.0175   31.6413  -74.3039 N.am      10 UNK        -0.7319 
     21 O         -71.1323   33.4238  -73.6032 O.2       10 UNK        -0.5018 
     22 N         -72.4461   30.1615  -74.6123 N.am      10 UNK        -0.4509 
     23 C         -72.3257   30.0120  -75.9367 C.2       10 UNK         0.4899 
     24 O         -72.3136   30.9514  -76.7334 O.2       10 UNK        -0.4839 
     25 CA        -72.1947   28.5626  -76.4505 C.3       9 UNK         0.0222 
     26 CB        -71.3618   28.4679  -77.7460 C.3       9 UNK        -0.1966 
     27 N         -71.6930   27.6204  -75.4376 N.am      9 UNK        -0.4218 
     28 C         -70.5130   27.6664  -74.7931 C.2       9 UNK         0.5020 
     29 O         -69.6658   28.5402  -74.9878 O.2       9 UNK        -0.5274 
     30 CA        -70.2418   26.6086  -73.7029 C.3       8 UNK         0.0270 
     31 CB        -70.2582   27.2665  -72.3118 C.3       8 UNK        -0.1976 
     32 N         -71.1919   25.4934  -73.7044 N.am      8 UNK        -0.4313 
     33 C         -71.2400   24.5200  -74.6236 C.2       8 UNK         0.5041 
     34 O         -70.4137   24.3944  -75.5279 O.2       8 UNK        -0.5577 
     35 CA        -72.4227   23.5336  -74.5414 C.3       7 UNK         0.0284 
     36 CB        -71.9737   22.2148  -73.8904 C.3       7 UNK        -0.1958 
     37 N         -73.6145   24.0347  -73.8387 N.am      7 UNK        -0.4454 
     38 C         -74.3181   25.1259  -74.1727 C.2       7 UNK         0.5089 
     39 O         -73.9834   25.9105  -75.0632 O.2       7 UNK        -0.5125 
     40 CA        -75.5707   25.4149  -73.3270 C.3       6 UNK         0.0408 
     41 CB        -75.1867   26.1114  -72.0112 C.3       6 UNK        -0.1791 
     42 N         -76.5119   26.2684  -74.0509 N.am      6 UNK        -0.4762 
     43 C         -77.2785   25.8620  -75.0721 C.2       6 UNK         0.5007 
     44 O         -77.4113   24.6737  -75.3773 O.2       6 UNK        -0.5032 
     45 CA        -78.0602   26.9587  -75.8306 C.3       5 UNK         0.0783 
     46 C46       -77.2428   28.2691  -76.0292 C.3       11 UNK        -0.0857 
     47 S47       -78.2102   29.6463  -76.7411 S.3       11 UNK        -0.2512 
     48 C48       -79.4261   30.0445  -75.4312 C.3       11 UNK         0.0225 
     49 N         -78.6702   26.4330  -77.0581 N.am      5 UNK        -0.4615 
     50 C         -78.0609   26.1192  -78.2117 C.2       4 UNK         0.5053 
     51 O         -76.8631   26.3079  -78.4263 O.2       4 UNK        -0.5105 
     52 CA        -78.9170   25.4708  -79.3233 C.3       4 UNK         0.0263 
     53 CB        -78.1912   24.2705  -79.9589 C.3       4 UNK        -0.1981 
     54 N         -80.2253   25.0186  -78.8456 N.am      4 UNK        -0.4224 
     55 C         -81.3458   25.7530  -78.8054 C.2       3 UNK         0.4895 
     56 O         -81.4419   26.8874  -79.2730 O.2       3 UNK        -0.5091 
     57 CA        -82.5549   25.1258  -78.0800 C.3       3 UNK         0.0250 
     58 CB        -83.5149   24.4809  -79.0927 C.3       3 UNK        -0.1996 
     59 N         -82.1807   24.1318  -77.0624 N.am      3 UNK        -0.4254 
     60 C         -81.4506   24.4019  -75.9706 C.2       2 UNK         0.5004 
     61 O         -81.0710   25.5391  -75.6776 O.2       2 UNK        -0.5226 
     62 CA        -81.0170   23.1941  -75.1195 C.3       2 UNK         0.0269 
     63 CB        -80.0774   22.2702  -75.9160 C.3       2 UNK        -0.1926 
     64 N         -80.3178   23.6235  -73.9079 N.am      2 UNK        -0.4687 
     65 C         -80.9221   24.1000  -72.8112 C.2       1 UNK         0.5165 
     66 O         -82.1452   24.1170  -72.6608 O.2       1 UNK        -0.5079 
     67 H67       -76.8467   21.5226  -70.5719 H         1 UNK         0.0900 
     68 H68       -76.3231   23.1314  -71.0550 H         1 UNK         0.0900 
     69 H69       -76.7173   21.9206  -72.2871 H         1 UNK         0.0900 
     70 H70       -77.9162   24.6509  -71.8765 H         1 UNK         0.2959 
     71 H71       -80.5124   24.4373  -70.7499 H         1 UNK         0.1079 
     72 H72       -79.3947   26.4744  -72.7516 H         1 UNK         0.0837 
     73 H73       -80.9131   26.6393  -71.9010 H         1 UNK         0.0837 
     74 H74       -80.7171   28.7111  -70.6855 H         1 UNK         0.0685 
     75 H75       -79.4366   29.1978  -69.6080 H         1 UNK         0.0685 
     76 H76       -80.4101   28.9006  -73.1624 H         1 UNK         0.1434 
     77 H77       -77.1475   31.3085  -74.5653 H         1 UNK         0.1329 
     78 H78       -77.2988   30.0827  -70.4612 H         1 UNK         0.1335 
     79 H79       -75.7521   31.9607  -71.2731 H         1 UNK         0.0680 
     80 H80       -75.5511   32.2002  -72.9974 H         1 UNK         0.0680 
     81 H81       -72.1485   30.7679  -71.8264 H         1 UNK         0.1032 
     82 H82       -73.1246   32.2066  -71.9354 H         1 UNK         0.1032 
     83 H83       -73.2225   32.0592  -74.3780 H         1 UNK         0.0461 
     84 H84       -70.0135   30.6641  -74.5690 H         1 UNK         0.3453 
     85 H85       -69.1615   32.1719  -74.3286 H         1 UNK         0.3453 
     86 H86       -72.4746   29.3310  -74.0415 H         1 UNK         0.2984 
     87 H87       -73.2086   28.2353  -76.6856 H         1 UNK         0.0554 
     88 H88       -71.2907   27.4385  -78.0970 H         1 UNK         0.0847 
     89 H89       -70.3485   28.8452  -77.6044 H         1 UNK         0.0847 
     90 H90       -71.8158   29.0510  -78.5481 H         1 UNK         0.0847 
     91 H91       -72.3484   26.8794  -75.1976 H         1 UNK         0.3141 
     92 H92       -69.2419   26.2079  -73.8827 H         1 UNK         0.0743 
     93 H93       -71.2368   27.6849  -72.0720 H         1 UNK         0.0784 
     94 H94       -69.9972   26.5516  -71.5311 H         1 UNK         0.0784 
     95 H95       -69.5342   28.0808  -72.2548 H         1 UNK         0.0784 
     96 H96       -71.9041   25.5013  -72.9894 H         1 UNK         0.3213 
     97 H97       -72.7240   23.3200  -75.5692 H         1 UNK         0.0855 
     98 H98       -71.6928   22.3549  -72.8458 H         1 UNK         0.0814 
     99 H99       -71.1070   21.7992  -74.4070 H         1 UNK         0.0814 
    100 H100      -72.7610   21.4618  -73.9305 H         1 UNK         0.0814 
    101 H101      -73.9506   23.4622  -73.0776 H         1 UNK         0.3105 
    102 H102      -76.0608   24.4672  -73.1009 H         1 UNK         0.0547 
    103 H103      -74.6615   27.0507  -72.1902 H         1 UNK         0.0837 
    104 H104      -76.0655   26.3349  -71.4059 H         1 UNK         0.0837 
    105 H105      -74.5319   25.4830  -71.4064 H         1 UNK         0.0837 
    106 H106      -76.4451   27.2575  -73.8585 H         1 UNK         0.3020 
    107 H107      -78.9006   27.1931  -75.1766 H         1 UNK         0.1245 
    108 H108      -76.8132   28.6199  -75.0923 H         1 UNK         0.0781 
    109 H109      -76.3825   28.0924  -76.6756 H         1 UNK         0.0781 
    110 H110      -79.8807   31.0095  -75.6585 H         1 UNK         0.0836 
    111 H111      -80.2318   29.3105  -75.4836 H         1 UNK         0.0836 
    112 H112      -79.6472   26.1854  -76.9496 H         1 UNK         0.3022 
    113 H113      -79.0594   26.2277  -80.0975 H         1 UNK         0.0747 
    114 H114      -78.7882   23.8195  -80.7518 H         1 UNK         0.0793 
    115 H115      -77.2439   24.5745  -80.4062 H         1 UNK         0.0793 
    116 H116      -77.9702   23.4975  -79.2217 H         1 UNK         0.0793 
    117 H117      -80.2529   24.0973  -78.4346 H         1 UNK         0.3047 
    118 H118      -83.0838   25.9361  -77.5733 H         1 UNK         0.0822 
    119 H119      -84.4169   24.1105  -78.6052 H         1 UNK         0.0807 
    120 H120      -83.0486   23.6466  -79.6183 H         1 UNK         0.0807 
    121 H121      -83.8308   25.2044  -79.8459 H         1 UNK         0.0807 
    122 H122      -82.4649   23.1781  -77.2378 H         1 UNK         0.2946 
    123 H123      -81.9124   22.6357  -74.8364 H         1 UNK         0.1144 
    124 H124      -79.7361   21.4339  -75.3053 H         1 UNK         0.0793 
    125 H125      -79.1943   22.8019  -76.2734 H         1 UNK         0.0793 
    126 H126      -80.5773   21.8431  -76.7860 H         1 UNK         0.0793 
    127 H127      -79.3109   23.6846  -73.9665 H         1 UNK         0.2896 
@<TRIPOS>BOND
     1    1    2 1    
     2    1   67 1    
     3    1   68 1    
     4    1   69 1    
     5    2    3 2    
     6    2    4 am   BACKBONE|DICT|INTERRES
     7    4    5 1    
     8    4   70 1    
     9    5    6 1    
    10    5   65 1    
    11    5   71 1    
    12    6    7 1    
    13    6   72 1    
    14    6   73 1    
    15    7    8 1    
    16    8    9 1    
    17    8   74 1    
    18    8   75 1    
    19    9   10 ar   
    20    9   14 ar   
    21   10   11 ar   
    22   10   76 1    
    23   11   12 ar   
    24   11   48 1    
    25   12   13 ar   
    26   12   77 1    
    27   13   14 ar   
    28   13   15 1    
    29   14   78 1    
    30   15   16 1    
    31   15   79 1    
    32   15   80 1    
    33   16   17 1    
    34   17   18 1    
    35   17   81 1    
    36   17   82 1    
    37   18   19 1    
    38   18   22 1    
    39   18   83 1    
    40   19   20 am   BACKBONE|DICT|INTERRES
    41   19   21 2    
    42   20   84 1    
    43   20   85 1    
    44   22   23 am   BACKBONE|DICT|INTERRES
    45   22   86 1    
    46   23   24 2    
    47   23   25 1    
    48   25   26 1    
    49   25   27 1    
    50   25   87 1    
    51   26   88 1    
    52   26   89 1    
    53   26   90 1    
    54   27   28 am   BACKBONE|DICT|INTERRES
    55   27   91 1    
    56   28   29 2    
    57   28   30 1    
    58   30   31 1    
    59   30   32 1    
    60   30   92 1    
    61   31   93 1    
    62   31   94 1    
    63   31   95 1    
    64   32   33 am   BACKBONE|DICT|INTERRES
    65   32   96 1    
    66   33   34 2    
    67   33   35 1    
    68   35   36 1    
    69   35   37 1    
    70   35   97 1    
    71   36   98 1    
    72   36   99 1    
    73   36  100 1    
    74   37   38 am   BACKBONE|DICT|INTERRES
    75   37  101 1    
    76   38   39 2    
    77   38   40 1    
    78   40   41 1    
    79   40   42 1    
    80   40  102 1    
    81   41  103 1    
    82   41  104 1    
    83   41  105 1    
    84   42   43 am   BACKBONE|DICT|INTERRES
    85   42  106 1    
    86   43   44 2    
    87   43   45 1    
    88   45   46 1    
    89   45   49 1    
    90   45  107 1    
    91   46   47 1    
    92   46  108 1    
    93   46  109 1    
    94   47   48 1    
    95   48  110 1    
    96   48  111 1    
    97   49   50 am   BACKBONE|DICT|INTERRES
    98   49  112 1    
    99   50   51 2    
   100   50   52 1    
   101   52   53 1    
   102   52   54 1    
   103   52  113 1    
   104   53  114 1    
   105   53  115 1    
   106   53  116 1    
   107   54   55 am   BACKBONE|DICT|INTERRES
   108   54  117 1    
   109   55   56 2    
   110   55   57 1    
   111   57   58 1    
   112   57   59 1    
   113   57  118 1    
   114   58  119 1    
   115   58  120 1    
   116   58  121 1    
   117   59   60 am   BACKBONE|DICT|INTERRES
   118   59  122 1    
   119   60   61 2    
   120   60   62 1    
   121   62   63 1    
   122   62   64 1    
   123   62  123 1    
   124   63  124 1    
   125   63  125 1    
   126   63  126 1    
   127   64   65 am   BACKBONE|DICT|INTERRES
   128   64  127 1    
   129   65   66 2    
@<TRIPOS>SUBSTRUCTURE
     1 UNK         1 GROUP             0       ****    0 ROOT    
