@<TRIPOS>MOLECULE
3R135
127   129    1
SMALL
USER_CHARGES


@<TRIPOS>ATOM
      1 CA        -78.2188   28.1772  -78.6635 C.3       0 UNK        -0.1998 
      2 C         -79.0926   28.4849  -77.4599 C.2       0 UNK         0.4909 
      3 O         -80.2069   28.9788  -77.6323 O.2       0 UNK        -0.5240 
      4 N         -78.5942   28.1859  -76.2518 N.am      1 UNK        -0.4739 
      5 CA        -79.2904   28.3149  -74.9647 C.3       1 UNK         0.0864 
      6 C6        -79.6129   29.7797  -74.5536 C.3       11 UNK        -0.0881 
      7 S7        -78.1115   30.7722  -74.2250 S.3       11 UNK        -0.2682 
      8 C8        -78.1953   31.0250  -72.4179 C.3       11 UNK         0.0289 
      9 C9        -77.5290   29.8935  -71.6449 C.ar      11 UNK        -0.0687 
     10 C10       -78.1302   28.6351  -71.5760 C.ar      11 UNK        -0.0823 
     11 C11       -77.5022   27.5804  -70.9099 C.ar      11 UNK        -0.0830 
     12 C12       -76.2970   27.8087  -70.2421 C.ar      11 UNK        -0.1021 
     13 C13       -75.6978   29.0736  -70.2674 C.ar      11 UNK        -0.0753 
     14 C14       -76.3166   30.1063  -70.9809 C.ar      11 UNK        -0.0933 
     15 C15       -74.4115   29.3671  -69.4973 C.3       11 UNK         0.0166 
     16 S16       -73.2167   27.9875  -69.4201 S.3       11 UNK        -0.2615 
     17 C17       -72.8581   27.6266  -71.1737 C.3       11 UNK        -0.0865 
     18 CA        -72.0883   28.7719  -71.8910 C.3       10 UNK         0.0862 
     19 C         -71.0407   28.2215  -72.9067 C.2       10 UNK         0.5551 
     20 N         -71.0875   28.5618  -74.1887 N.am      10 UNK        -0.7319 
     21 O         -70.1497   27.4719  -72.5149 O.2       10 UNK        -0.5018 
     22 N         -73.0274   29.7514  -72.4589 N.am      10 UNK        -0.4509 
     23 C         -72.7567   31.0414  -72.6896 C.2       10 UNK         0.4899 
     24 O         -71.7053   31.5894  -72.3546 O.2       10 UNK        -0.4839 
     25 CA        -73.8507   31.8479  -73.4272 C.3       9 UNK         0.0222 
     26 CB        -73.2935   33.1271  -74.0867 C.3       9 UNK        -0.1966 
     27 N         -74.6185   31.0657  -74.4117 N.am      9 UNK        -0.4218 
     28 C         -74.1191   30.3567  -75.4358 C.2       9 UNK         0.5020 
     29 O         -72.9121   30.2230  -75.6444 O.2       9 UNK        -0.5274 
     30 CA        -75.1536   29.6906  -76.3599 C.3       8 UNK         0.0270 
     31 CB        -75.7093   30.7068  -77.3790 C.3       8 UNK        -0.1976 
     32 N         -74.6409   28.4734  -77.0063 N.am      8 UNK        -0.4313 
     33 C         -73.7105   28.3529  -77.9701 C.2       8 UNK         0.5041 
     34 O         -73.2166   29.2938  -78.5935 O.2       8 UNK        -0.5577 
     35 CA        -73.2365   26.9233  -78.3019 C.3       7 UNK         0.0284 
     36 CB        -71.9331   26.6081  -77.5490 C.3       7 UNK        -0.1958 
     37 N         -74.2319   25.8970  -77.9840 N.am      7 UNK        -0.4454 
     38 C         -75.3670   25.7041  -78.6675 C.2       7 UNK         0.5089 
     39 O         -75.6318   26.2816  -79.7218 O.2       7 UNK        -0.5125 
     40 CA        -76.3960   24.7249  -78.0728 C.3       6 UNK         0.0408 
     41 CB        -76.5034   23.4567  -78.9342 C.3       6 UNK        -0.1791 
     42 N         -76.1536   24.3315  -76.6802 N.am      6 UNK        -0.4762 
     43 C         -76.2219   25.1302  -75.6038 C.2       6 UNK         0.5007 
     44 O         -76.3646   26.3547  -75.6733 O.2       6 UNK        -0.5032 
     45 CA        -76.1199   24.4108  -74.2438 C.3       5 UNK         0.0783 
     46 C46       -76.4009   25.3002  -72.9966 C.3       11 UNK        -0.0857 
     47 S47       -78.1750   25.5056  -72.6094 S.3       11 UNK        -0.2512 
     48 C48       -78.1246   26.1933  -70.9246 C.3       11 UNK         0.0225 
     49 N         -76.9416   23.1962  -74.2760 N.am      5 UNK        -0.4615 
     50 C         -76.6889   22.0789  -73.5859 C.2       4 UNK         0.5053 
     51 O         -75.6466   21.9004  -72.9547 O.2       4 UNK        -0.5105 
     52 CA        -77.7745   20.9834  -73.5520 C.3       4 UNK         0.0263 
     53 CB        -78.2947   20.7973  -72.1158 C.3       4 UNK        -0.1981 
     54 N         -78.9201   21.2586  -74.4240 N.am      4 UNK        -0.4224 
     55 C         -78.9921   20.9477  -75.7253 C.2       3 UNK         0.4895 
     56 O         -78.1000   20.3615  -76.3390 O.2       3 UNK        -0.5091 
     57 CA        -80.2690   21.3793  -76.4785 C.3       3 UNK         0.0250 
     58 CB        -81.2840   20.2252  -76.5150 C.3       3 UNK        -0.1996 
     59 N         -80.9240   22.5854  -75.9466 N.am      3 UNK        -0.4254 
     60 C         -80.3317   23.7831  -75.8486 C.2       2 UNK         0.5004 
     61 O         -79.1566   23.9737  -76.1701 O.2       2 UNK        -0.5226 
     62 CA        -81.1505   24.9465  -75.2659 C.3       2 UNK         0.0269 
     63 CB        -81.6701   24.6120  -73.8505 C.3       2 UNK        -0.1926 
     64 N         -80.2551   26.1002  -75.2377 N.am      2 UNK        -0.4687 
     65 C         -80.5115   27.3676  -74.9021 C.2       1 UNK         0.5165 
     66 O         -81.6249   27.7835  -74.5758 O.2       1 UNK        -0.5079 
     67 H67       -78.5854   27.2911  -79.1808 H         1 UNK         0.0900 
     68 H68       -77.1862   28.0006  -78.3694 H         1 UNK         0.0900 
     69 H69       -78.2302   29.0112  -79.3646 H         1 UNK         0.0900 
     70 H70       -77.6921   27.7234  -76.1882 H         1 UNK         0.2959 
     71 H71       -78.5867   27.9203  -74.2328 H         1 UNK         0.1079 
     72 H72       -80.1940   30.2788  -75.3298 H         1 UNK         0.0837 
     73 H73       -80.2449   29.7995  -73.6648 H         1 UNK         0.0837 
     74 H74       -79.2305   31.1401  -72.0943 H         1 UNK         0.0685 
     75 H75       -77.7065   31.9729  -72.1874 H         1 UNK         0.0685 
     76 H76       -79.0796   28.4630  -72.0605 H         1 UNK         0.1434 
     77 H77       -75.8275   26.9994  -69.7005 H         1 UNK         0.1329 
     78 H78       -75.8624   31.0869  -71.0005 H         1 UNK         0.1335 
     79 H79       -73.9064   30.2415  -69.9087 H         1 UNK         0.0680 
     80 H80       -74.6850   29.6336  -68.4758 H         1 UNK         0.0680 
     81 H81       -73.7808   27.3763  -71.6993 H         1 UNK         0.1032 
     82 H82       -72.2785   26.7013  -71.1662 H         1 UNK         0.1032 
     83 H83       -71.4868   29.2894  -71.1411 H         1 UNK         0.0461 
     84 H84       -71.7907   29.2021  -74.5491 H         1 UNK         0.3453 
     85 H85       -70.3856   28.1979  -74.8118 H         1 UNK         0.3453 
     86 H86       -73.9132   29.3870  -72.7747 H         1 UNK         0.2984 
     87 H87       -74.5630   32.1603  -72.6634 H         1 UNK         0.0554 
     88 H88       -74.0826   33.6983  -74.5755 H         1 UNK         0.0847 
     89 H89       -72.5345   32.8958  -74.8351 H         1 UNK         0.0847 
     90 H90       -72.8326   33.7835  -73.3475 H         1 UNK         0.0847 
     91 H91       -75.6256   31.1012  -74.3084 H         1 UNK         0.3141 
     92 H92       -75.9798   29.3508  -75.7348 H         1 UNK         0.0743 
     93 H93       -74.9134   31.1889  -77.9475 H         1 UNK         0.0784 
     94 H94       -76.3877   30.2403  -78.0898 H         1 UNK         0.0784 
     95 H95       -76.2657   31.4974  -76.8743 H         1 UNK         0.0784 
     96 H96       -74.9744   27.6132  -76.5852 H         1 UNK         0.3213 
     97 H97       -73.0320   26.8837  -79.3743 H         1 UNK         0.0855 
     98 H98       -72.0757   26.6263  -76.4677 H         1 UNK         0.0814 
     99 H99       -71.1611   27.3419  -77.7857 H         1 UNK         0.0814 
    100 H100      -71.5414   25.6283  -77.8225 H         1 UNK         0.0814 
    101 H101      -74.0874   25.3545  -77.1454 H         1 UNK         0.3105 
    102 H102      -77.3637   25.2299  -78.0994 H         1 UNK         0.0547 
    103 H103      -76.7300   23.7052  -79.9719 H         1 UNK         0.0837 
    104 H104      -75.5741   22.8860  -78.9306 H         1 UNK         0.0837 
    105 H105      -77.3020   22.8045  -78.5787 H         1 UNK         0.0837 
    106 H106      -76.0430   23.3406  -76.5164 H         1 UNK         0.3020 
    107 H107      -75.0717   24.1089  -74.1829 H         1 UNK         0.1245 
    108 H108      -75.9294   24.8414  -72.1263 H         1 UNK         0.0781 
    109 H109      -75.9378   26.2838  -73.0940 H         1 UNK         0.0781 
    110 H110      -79.1418   26.2521  -70.5351 H         1 UNK         0.0836 
    111 H111      -77.5828   25.5080  -70.2709 H         1 UNK         0.0836 
    112 H112      -77.8003   23.2758  -74.8123 H         1 UNK         0.3022 
    113 H113      -77.3023   20.0500  -73.8659 H         1 UNK         0.0747 
    114 H114      -79.0307   19.9949  -72.0604 H         1 UNK         0.0793 
    115 H115      -77.4834   20.5358  -71.4350 H         1 UNK         0.0793 
    116 H116      -78.7587   21.7079  -71.7340 H         1 UNK         0.0793 
    117 H117      -79.7000   21.7454  -74.0069 H         1 UNK         0.3047 
    118 H118      -79.9700   21.6013  -77.5053 H         1 UNK         0.0822 
    119 H119      -82.1436   20.4708  -77.1389 H         1 UNK         0.0807 
    120 H120      -81.6505   19.9778  -75.5179 H         1 UNK         0.0807 
    121 H121      -80.8339   19.3220  -76.9300 H         1 UNK         0.0807 
    122 H122      -81.8887   22.4901  -75.6628 H         1 UNK         0.2946 
    123 H123      -81.9849   25.1620  -75.9361 H         1 UNK         0.1144 
    124 H124      -82.2021   25.4521  -73.4052 H         1 UNK         0.0793 
    125 H125      -80.8583   24.3396  -73.1758 H         1 UNK         0.0793 
    126 H126      -82.3704   23.7767  -73.8714 H         1 UNK         0.0793 
    127 H127      -79.3159   25.8561  -75.5343 H         1 UNK         0.2896 
@<TRIPOS>BOND
     1    1    2 1    
     2    1   67 1    
     3    1   68 1    
     4    1   69 1    
     5    2    3 2    
     6    2    4 am   BACKBONE|DICT|INTERRES
     7    4    5 1    
     8    4   70 1    
     9    5    6 1    
    10    5   65 1    
    11    5   71 1    
    12    6    7 1    
    13    6   72 1    
    14    6   73 1    
    15    7    8 1    
    16    8    9 1    
    17    8   74 1    
    18    8   75 1    
    19    9   10 ar   
    20    9   14 ar   
    21   10   11 ar   
    22   10   76 1    
    23   11   12 ar   
    24   11   48 1    
    25   12   13 ar   
    26   12   77 1    
    27   13   14 ar   
    28   13   15 1    
    29   14   78 1    
    30   15   16 1    
    31   15   79 1    
    32   15   80 1    
    33   16   17 1    
    34   17   18 1    
    35   17   81 1    
    36   17   82 1    
    37   18   19 1    
    38   18   22 1    
    39   18   83 1    
    40   19   20 am   BACKBONE|DICT|INTERRES
    41   19   21 2    
    42   20   84 1    
    43   20   85 1    
    44   22   23 am   BACKBONE|DICT|INTERRES
    45   22   86 1    
    46   23   24 2    
    47   23   25 1    
    48   25   26 1    
    49   25   27 1    
    50   25   87 1    
    51   26   88 1    
    52   26   89 1    
    53   26   90 1    
    54   27   28 am   BACKBONE|DICT|INTERRES
    55   27   91 1    
    56   28   29 2    
    57   28   30 1    
    58   30   31 1    
    59   30   32 1    
    60   30   92 1    
    61   31   93 1    
    62   31   94 1    
    63   31   95 1    
    64   32   33 am   BACKBONE|DICT|INTERRES
    65   32   96 1    
    66   33   34 2    
    67   33   35 1    
    68   35   36 1    
    69   35   37 1    
    70   35   97 1    
    71   36   98 1    
    72   36   99 1    
    73   36  100 1    
    74   37   38 am   BACKBONE|DICT|INTERRES
    75   37  101 1    
    76   38   39 2    
    77   38   40 1    
    78   40   41 1    
    79   40   42 1    
    80   40  102 1    
    81   41  103 1    
    82   41  104 1    
    83   41  105 1    
    84   42   43 am   BACKBONE|DICT|INTERRES
    85   42  106 1    
    86   43   44 2    
    87   43   45 1    
    88   45   46 1    
    89   45   49 1    
    90   45  107 1    
    91   46   47 1    
    92   46  108 1    
    93   46  109 1    
    94   47   48 1    
    95   48  110 1    
    96   48  111 1    
    97   49   50 am   BACKBONE|DICT|INTERRES
    98   49  112 1    
    99   50   51 2    
   100   50   52 1    
   101   52   53 1    
   102   52   54 1    
   103   52  113 1    
   104   53  114 1    
   105   53  115 1    
   106   53  116 1    
   107   54   55 am   BACKBONE|DICT|INTERRES
   108   54  117 1    
   109   55   56 2    
   110   55   57 1    
   111   57   58 1    
   112   57   59 1    
   113   57  118 1    
   114   58  119 1    
   115   58  120 1    
   116   58  121 1    
   117   59   60 am   BACKBONE|DICT|INTERRES
   118   59  122 1    
   119   60   61 2    
   120   60   62 1    
   121   62   63 1    
   122   62   64 1    
   123   62  123 1    
   124   63  124 1    
   125   63  125 1    
   126   63  126 1    
   127   64   65 am   BACKBONE|DICT|INTERRES
   128   64  127 1    
   129   65   66 2    
@<TRIPOS>SUBSTRUCTURE
     1 UNK         1 GROUP             0       ****    0 ROOT    
