@<TRIPOS>MOLECULE
3R135
127   129    1
SMALL
USER_CHARGES


@<TRIPOS>ATOM
      1 CA        -82.3157   27.2987  -69.9619 C.3       0 UNK        -0.1998 
      2 C         -83.0133   27.3027  -71.3139 C.2       0 UNK         0.4909 
      3 O         -84.1638   26.8756  -71.4129 O.2       0 UNK        -0.5240 
      4 N         -82.3233   27.7800  -72.3575 N.am      1 UNK        -0.4739 
      5 CA        -82.8161   27.8342  -73.7406 C.3       1 UNK         0.0864 
      6 C6        -82.0646   28.9104  -74.5691 C.3       11 UNK        -0.0881 
      7 S7        -80.2705   28.6014  -74.7239 S.3       11 UNK        -0.2682 
      8 C8        -79.5712   29.7906  -73.5425 C.3       11 UNK         0.0289 
      9 C9        -78.2072   29.3195  -73.0667 C.ar      11 UNK        -0.0687 
     10 C10       -78.1220   28.3343  -72.0802 C.ar      11 UNK        -0.0823 
     11 C11       -76.8794   27.8832  -71.6295 C.ar      11 UNK        -0.0830 
     12 C12       -75.7115   28.4338  -72.1678 C.ar      11 UNK        -0.1021 
     13 C13       -75.7834   29.4191  -73.1583 C.ar      11 UNK        -0.0753 
     14 C14       -77.0348   29.8575  -73.6052 C.ar      11 UNK        -0.0933 
     15 C15       -74.5131   30.0171  -73.7437 C.3       11 UNK         0.0166 
     16 S16       -73.9263   31.3976  -72.7122 S.3       11 UNK        -0.2615 
     17 C17       -72.9677   32.4065  -73.9009 C.3       11 UNK        -0.0865 
     18 CA        -71.4316   32.5236  -73.6576 C.3       10 UNK         0.0862 
     19 C         -71.0200   32.9280  -72.2076 C.2       10 UNK         0.5551 
     20 N         -69.9496   32.3838  -71.6429 N.am      10 UNK        -0.7319 
     21 O         -71.6477   33.7965  -71.6060 O.2       10 UNK        -0.5018 
     22 N         -70.6564   31.4484  -74.3032 N.am      10 UNK        -0.4509 
     23 C         -70.5455   30.1678  -73.9323 C.2       10 UNK         0.4899 
     24 O         -71.0415   29.6798  -72.9161 O.2       10 UNK        -0.4839 
     25 CA        -69.6637   29.2951  -74.8432 C.3       9 UNK         0.0222 
     26 CB        -68.2168   29.2684  -74.3233 C.3       9 UNK        -0.1966 
     27 N         -70.1629   27.9229  -74.9484 N.am      9 UNK        -0.4218 
     28 C         -71.3245   27.5753  -75.5173 C.2       9 UNK         0.5020 
     29 O         -72.0838   28.3770  -76.0682 O.2       9 UNK        -0.5274 
     30 CA        -71.6845   26.0812  -75.4382 C.3       8 UNK         0.0270 
     31 CB        -72.0000   25.6708  -73.9877 C.3       8 UNK        -0.1976 
     32 N         -72.8313   25.7607  -76.2922 N.am      8 UNK        -0.4313 
     33 C         -72.7523   25.5378  -77.6126 C.2       8 UNK         0.5041 
     34 O         -71.6854   25.5165  -78.2300 O.2       8 UNK        -0.5577 
     35 CA        -74.0550   25.2633  -78.3929 C.3       7 UNK         0.0284 
     36 CB        -74.1503   23.7750  -78.7692 C.3       7 UNK        -0.1958 
     37 N         -75.2740   25.6396  -77.6788 N.am      7 UNK        -0.4454 
     38 C         -75.6957   26.8923  -77.4603 C.2       7 UNK         0.5089 
     39 O         -75.1480   27.8930  -77.9222 O.2       7 UNK        -0.5125 
     40 CA        -76.9422   27.0507  -76.5666 C.3       6 UNK         0.0408 
     41 CB        -78.1966   27.1259  -77.4512 C.3       6 UNK        -0.1791 
     42 N         -77.1064   25.9776  -75.5745 N.am      6 UNK        -0.4762 
     43 C         -76.1959   25.6328  -74.6488 C.2       6 UNK         0.5007 
     44 O         -75.1076   26.1912  -74.5338 O.2       6 UNK        -0.5032 
     45 CA        -76.4988   24.4025  -73.7748 C.3       5 UNK         0.0783 
     46 C46       -77.2770   24.7562  -72.4825 C.3       11 UNK        -0.0857 
     47 S47       -76.1292   25.2370  -71.1441 S.3       11 UNK        -0.2512 
     48 C48       -76.8110   26.8161  -70.5462 C.3       11 UNK         0.0225 
     49 N         -77.1654   23.3652  -74.5649 N.am      5 UNK        -0.4615 
     50 C         -76.5126   22.4435  -75.2879 C.2       4 UNK         0.5053 
     51 O         -75.2868   22.3361  -75.3128 O.2       4 UNK        -0.5105 
     52 CA        -77.3593   21.4795  -76.1376 C.3       4 UNK         0.0263 
     53 CB        -77.6978   20.2130  -75.3351 C.3       4 UNK        -0.1981 
     54 N         -78.5962   22.0813  -76.6374 N.am      4 UNK        -0.4224 
     55 C         -78.6510   23.0835  -77.5257 C.2       3 UNK         0.4895 
     56 O         -77.6608   23.5796  -78.0633 O.2       3 UNK        -0.5091 
     57 CA        -80.0468   23.6554  -77.8333 C.3       3 UNK         0.0250 
     58 CB        -80.6822   22.9086  -79.0168 C.3       3 UNK        -0.1996 
     59 N         -80.9732   23.6444  -76.6926 N.am      3 UNK        -0.4254 
     60 C         -80.7520   24.2444  -75.5143 C.2       2 UNK         0.5004 
     61 O         -79.6961   24.8076  -75.2162 O.2       2 UNK        -0.5226 
     62 CA        -81.8696   24.1570  -74.4674 C.3       2 UNK         0.0269 
     63 CB        -81.4857   23.1634  -73.3586 C.3       2 UNK        -0.1926 
     64 N         -82.0941   25.4736  -73.8743 N.am      2 UNK        -0.4687 
     65 C         -82.8094   26.4550  -74.4432 C.2       1 UNK         0.5165 
     66 O         -83.4499   26.3070  -75.4857 O.2       1 UNK        -0.5079 
     67 H67       -81.3144   27.7254  -70.0166 H         1 UNK         0.0900 
     68 H68       -82.2302   26.2790  -69.5872 H         1 UNK         0.0900 
     69 H69       -82.8916   27.8791  -69.2416 H         1 UNK         0.0900 
     70 H70       -81.3809   28.1145  -72.2251 H         1 UNK         0.2959 
     71 H71       -83.8649   28.1380  -73.7023 H         1 UNK         0.1079 
     72 H72       -82.4848   28.9729  -75.5749 H         1 UNK         0.0837 
     73 H73       -82.2269   29.8959  -74.1297 H         1 UNK         0.0837 
     74 H74       -79.5028   30.7715  -74.0154 H         1 UNK         0.0685 
     75 H75       -80.2338   29.9064  -72.6838 H         1 UNK         0.0685 
     76 H76       -79.0277   27.9136  -71.6672 H         1 UNK         0.1434 
     77 H77       -74.7460   28.0896  -71.8227 H         1 UNK         0.1329 
     78 H78       -77.0953   30.6192  -74.3703 H         1 UNK         0.1335 
     79 H79       -73.7334   29.2568  -73.8154 H         1 UNK         0.0680 
     80 H80       -74.7048   30.3581  -74.7620 H         1 UNK         0.0680 
     81 H81       -73.4007   33.4077  -73.8665 H         1 UNK         0.1032 
     82 H82       -73.1532   32.0599  -74.9182 H         1 UNK         0.1032 
     83 H83       -71.1247   33.3970  -74.2347 H         1 UNK         0.0461 
     84 H84       -69.4390   31.6594  -72.1209 H         1 UNK         0.3453 
     85 H85       -69.6807   32.6674  -70.7141 H         1 UNK         0.3453 
     86 H86       -70.1573   31.7368  -75.1328 H         1 UNK         0.2984 
     87 H87       -69.6620   29.7235  -75.8480 H         1 UNK         0.0554 
     88 H88       -67.5675   28.6902  -74.9811 H         1 UNK         0.0847 
     89 H89       -68.1545   28.8357  -73.3237 H         1 UNK         0.0847 
     90 H90       -67.8015   30.2756  -74.2676 H         1 UNK         0.0847 
     91 H91       -69.6172   27.2089  -74.4885 H         1 UNK         0.3141 
     92 H92       -70.8233   25.5016  -75.7780 H         1 UNK         0.0743 
     93 H93       -72.7335   26.3353  -73.5293 H         1 UNK         0.0784 
     94 H94       -72.3891   24.6536  -73.9344 H         1 UNK         0.0784 
     95 H95       -71.1054   25.7064  -73.3655 H         1 UNK         0.0784 
     96 H96       -73.7449   25.8516  -75.8551 H         1 UNK         0.3213 
     97 H97       -74.0091   25.8479  -79.3142 H         1 UNK         0.0855 
     98 H98       -74.2081   23.1395  -77.8844 H         1 UNK         0.0814 
     99 H99       -73.2778   23.4586  -79.3425 H         1 UNK         0.0814 
    100 H100      -75.0297   23.5756  -79.3822 H         1 UNK         0.0814 
    101 H101      -75.8414   24.8848  -77.3143 H         1 UNK         0.3105 
    102 H102      -76.8485   27.9866  -76.0125 H         1 UNK         0.0547 
    103 H103      -78.2074   28.0526  -78.0258 H         1 UNK         0.0837 
    104 H104      -78.2315   26.3039  -78.1657 H         1 UNK         0.0837 
    105 H105      -79.1133   27.0941  -76.8650 H         1 UNK         0.0837 
    106 H106      -78.0045   25.4982  -75.5679 H         1 UNK         0.3020 
    107 H107      -75.5277   24.0021  -73.4716 H         1 UNK         0.1245 
    108 H108      -77.8240   23.8834  -72.1224 H         1 UNK         0.0781 
    109 H109      -78.0326   25.5231  -72.6613 H         1 UNK         0.0781 
    110 H110      -76.1866   27.1801  -69.7291 H         1 UNK         0.0836 
    111 H111      -77.7964   26.6324  -70.1150 H         1 UNK         0.0836 
    112 H112      -78.1699   23.4502  -74.6582 H         1 UNK         0.3022 
    113 H113      -76.7569   21.1877  -77.0008 H         1 UNK         0.0747 
    114 H114      -78.2268   19.4834  -75.9486 H         1 UNK         0.0793 
    115 H115      -76.7905   19.7291  -74.9702 H         1 UNK         0.0793 
    116 H116      -78.3189   20.4373  -74.4669 H         1 UNK         0.0793 
    117 H117      -79.4632   21.7342  -76.2542 H         1 UNK         0.3047 
    118 H118      -79.9140   24.6976  -78.1263 H         1 UNK         0.0822 
    119 H119      -81.6218   23.3708  -79.3205 H         1 UNK         0.0807 
    120 H120      -80.8829   21.8638  -78.7763 H         1 UNK         0.0807 
    121 H121      -80.0226   22.9219  -79.8859 H         1 UNK         0.0807 
    122 H122      -81.8629   23.1911  -76.8458 H         1 UNK         0.2946 
    123 H123      -82.7924   23.8154  -74.9422 H         1 UNK         0.1144 
    124 H124      -82.2720   23.0862  -72.6073 H         1 UNK         0.0793 
    125 H125      -80.5657   23.4570  -72.8507 H         1 UNK         0.0793 
    126 H126      -81.3288   22.1637  -73.7658 H         1 UNK         0.0793 
    127 H127      -81.5617   25.6964  -73.0470 H         1 UNK         0.2896 
@<TRIPOS>BOND
     1    1    2 1    
     2    1   67 1    
     3    1   68 1    
     4    1   69 1    
     5    2    3 2    
     6    2    4 am   BACKBONE|DICT|INTERRES
     7    4    5 1    
     8    4   70 1    
     9    5    6 1    
    10    5   65 1    
    11    5   71 1    
    12    6    7 1    
    13    6   72 1    
    14    6   73 1    
    15    7    8 1    
    16    8    9 1    
    17    8   74 1    
    18    8   75 1    
    19    9   10 ar   
    20    9   14 ar   
    21   10   11 ar   
    22   10   76 1    
    23   11   12 ar   
    24   11   48 1    
    25   12   13 ar   
    26   12   77 1    
    27   13   14 ar   
    28   13   15 1    
    29   14   78 1    
    30   15   16 1    
    31   15   79 1    
    32   15   80 1    
    33   16   17 1    
    34   17   18 1    
    35   17   81 1    
    36   17   82 1    
    37   18   19 1    
    38   18   22 1    
    39   18   83 1    
    40   19   20 am   BACKBONE|DICT|INTERRES
    41   19   21 2    
    42   20   84 1    
    43   20   85 1    
    44   22   23 am   BACKBONE|DICT|INTERRES
    45   22   86 1    
    46   23   24 2    
    47   23   25 1    
    48   25   26 1    
    49   25   27 1    
    50   25   87 1    
    51   26   88 1    
    52   26   89 1    
    53   26   90 1    
    54   27   28 am   BACKBONE|DICT|INTERRES
    55   27   91 1    
    56   28   29 2    
    57   28   30 1    
    58   30   31 1    
    59   30   32 1    
    60   30   92 1    
    61   31   93 1    
    62   31   94 1    
    63   31   95 1    
    64   32   33 am   BACKBONE|DICT|INTERRES
    65   32   96 1    
    66   33   34 2    
    67   33   35 1    
    68   35   36 1    
    69   35   37 1    
    70   35   97 1    
    71   36   98 1    
    72   36   99 1    
    73   36  100 1    
    74   37   38 am   BACKBONE|DICT|INTERRES
    75   37  101 1    
    76   38   39 2    
    77   38   40 1    
    78   40   41 1    
    79   40   42 1    
    80   40  102 1    
    81   41  103 1    
    82   41  104 1    
    83   41  105 1    
    84   42   43 am   BACKBONE|DICT|INTERRES
    85   42  106 1    
    86   43   44 2    
    87   43   45 1    
    88   45   46 1    
    89   45   49 1    
    90   45  107 1    
    91   46   47 1    
    92   46  108 1    
    93   46  109 1    
    94   47   48 1    
    95   48  110 1    
    96   48  111 1    
    97   49   50 am   BACKBONE|DICT|INTERRES
    98   49  112 1    
    99   50   51 2    
   100   50   52 1    
   101   52   53 1    
   102   52   54 1    
   103   52  113 1    
   104   53  114 1    
   105   53  115 1    
   106   53  116 1    
   107   54   55 am   BACKBONE|DICT|INTERRES
   108   54  117 1    
   109   55   56 2    
   110   55   57 1    
   111   57   58 1    
   112   57   59 1    
   113   57  118 1    
   114   58  119 1    
   115   58  120 1    
   116   58  121 1    
   117   59   60 am   BACKBONE|DICT|INTERRES
   118   59  122 1    
   119   60   61 2    
   120   60   62 1    
   121   62   63 1    
   122   62   64 1    
   123   62  123 1    
   124   63  124 1    
   125   63  125 1    
   126   63  126 1    
   127   64   65 am   BACKBONE|DICT|INTERRES
   128   64  127 1    
   129   65   66 2    
@<TRIPOS>SUBSTRUCTURE
     1 UNK         1 GROUP             0       ****    0 ROOT    
