@<TRIPOS>MOLECULE
3R135
127   129    1
SMALL
USER_CHARGES


@<TRIPOS>ATOM
      1 CA        -78.4334   21.8259  -71.4105 C.3       0 UNK        -0.1998 
      2 C         -79.0646   23.1755  -71.7136 C.2       0 UNK         0.4909 
      3 O         -78.5102   23.9315  -72.5104 O.2       0 UNK        -0.5240 
      4 N         -80.2325   23.4521  -71.1129 N.am      1 UNK        -0.4739 
      5 CA        -81.0477   24.6857  -71.1139 C.3       1 UNK         0.0864 
      6 C6        -80.4390   25.8174  -70.2344 C.3       11 UNK        -0.0881 
      7 S7        -79.1829   26.8760  -71.0384 S.3       11 UNK        -0.2682 
      8 C8        -79.7393   28.5361  -70.5514 C.3       11 UNK         0.0289 
      9 C9        -79.1012   29.6043  -71.4243 C.ar      11 UNK        -0.0687 
     10 C10       -79.7441   30.0116  -72.5957 C.ar      11 UNK        -0.0823 
     11 C11       -79.1847   31.0022  -73.4073 C.ar      11 UNK        -0.0830 
     12 C12       -77.9750   31.5936  -73.0335 C.ar      11 UNK        -0.1021 
     13 C13       -77.3191   31.1923  -71.8653 C.ar      11 UNK        -0.0753 
     14 C14       -77.8855   30.1949  -71.0636 C.ar      11 UNK        -0.0933 
     15 C15       -76.0097   31.8573  -71.4681 C.3       11 UNK         0.0166 
     16 S16       -74.5978   31.1710  -72.3879 S.3       11 UNK        -0.2615 
     17 C17       -74.3326   29.5913  -71.5134 C.3       11 UNK        -0.0865 
     18 CA        -72.9188   29.0069  -71.7770 C.3       10 UNK         0.0862 
     19 C         -72.6020   27.8329  -70.8043 C.2       10 UNK         0.5551 
     20 N         -72.3356   26.6197  -71.2690 N.am      10 UNK        -0.7319 
     21 O         -72.5883   28.0346  -69.5923 O.2       10 UNK        -0.5018 
     22 N         -72.7265   28.7117  -73.2049 N.am      10 UNK        -0.4509 
     23 C         -71.5512   28.5841  -73.8283 C.2       10 UNK         0.4899 
     24 O         -70.4545   28.6719  -73.2722 O.2       10 UNK        -0.4839 
     25 CA        -71.6324   28.3369  -75.3481 C.3       9 UNK         0.0222 
     26 CB        -70.4834   29.0412  -76.0922 C.3       9 UNK        -0.1966 
     27 N         -71.6852   26.9359  -75.7914 N.am      9 UNK        -0.4218 
     28 C         -72.0735   25.8235  -75.1500 C.2       9 UNK         0.5020 
     29 O         -72.3332   25.7513  -73.9494 O.2       9 UNK        -0.5274 
     30 CA        -72.2206   24.5665  -76.0307 C.3       8 UNK         0.0270 
     31 CB        -72.6943   23.3257  -75.2478 C.3       8 UNK        -0.1976 
     32 N         -73.1230   24.7845  -77.1690 N.am      8 UNK        -0.4313 
     33 C         -72.7657   25.3770  -78.3154 C.2       8 UNK         0.5041 
     34 O         -71.6692   25.9151  -78.4806 O.2       8 UNK        -0.5577 
     35 CA        -73.7698   25.3606  -79.4714 C.3       7 UNK         0.0284 
     36 CB        -73.9029   23.9459  -80.0649 C.3       7 UNK        -0.1958 
     37 N         -75.0907   25.8710  -79.0956 N.am      7 UNK        -0.4454 
     38 C         -75.8774   26.5524  -79.9400 C.2       7 UNK         0.5089 
     39 O         -75.5310   26.8976  -81.0711 O.2       7 UNK        -0.5125 
     40 CA        -77.3072   26.8802  -79.4824 C.3       6 UNK         0.0408 
     41 CB        -78.2403   25.6920  -79.7635 C.3       6 UNK        -0.1791 
     42 N         -77.4294   27.2634  -78.0776 N.am      6 UNK        -0.4762 
     43 C         -76.9603   28.3992  -77.5398 C.2       6 UNK         0.5007 
     44 O         -76.2541   29.2089  -78.1415 O.2       6 UNK        -0.5032 
     45 CA        -77.3776   28.6709  -76.0822 C.3       5 UNK         0.0783 
     46 C46       -78.8573   29.1321  -76.0013 C.3       11 UNK        -0.0857 
     47 S47       -79.0017   30.9418  -76.1914 S.3       11 UNK        -0.2512 
     48 C48       -79.8967   31.4349  -74.6819 C.3       11 UNK         0.0225 
     49 N         -77.1292   27.4770  -75.2755 N.am      5 UNK        -0.4615 
     50 C         -75.9389   27.1704  -74.7460 C.2       4 UNK         0.5053 
     51 O         -74.9786   27.9391  -74.7454 O.2       4 UNK        -0.5105 
     52 CA        -75.7690   25.7689  -74.1361 C.3       4 UNK         0.0263 
     53 CB        -75.7779   25.8263  -72.6040 C.3       4 UNK        -0.1981 
     54 N         -76.7594   24.7982  -74.6015 N.am      4 UNK        -0.4224 
     55 C         -76.7817   24.2797  -75.8378 C.2       3 UNK         0.4895 
     56 O         -75.9335   24.5221  -76.6991 O.2       3 UNK        -0.5091 
     57 CA        -77.9708   23.3711  -76.1908 C.3       3 UNK         0.0250 
     58 CB        -77.6669   21.9196  -75.7891 C.3       3 UNK        -0.1996 
     59 N         -79.2374   23.7928  -75.5823 N.am      3 UNK        -0.4254 
     60 C         -79.8304   24.9840  -75.7614 C.2       2 UNK         0.5004 
     61 O         -79.3743   25.8747  -76.4775 O.2       2 UNK        -0.5226 
     62 CA        -81.1047   25.2426  -74.9517 C.3       2 UNK         0.0269 
     63 CB        -82.3152   24.5144  -75.5639 C.3       2 UNK        -0.1926 
     64 N         -80.8761   24.8270  -73.5710 N.am      2 UNK        -0.4687 
     65 C         -81.5690   25.1824  -72.4882 C.2       1 UNK         0.5165 
     66 O         -82.5920   25.8677  -72.5335 O.2       1 UNK        -0.5079 
     67 H67       -78.4006   21.2156  -72.3123 H         1 UNK         0.0900 
     68 H68       -77.4125   21.9644  -71.0557 H         1 UNK         0.0900 
     69 H69       -78.9853   21.2776  -70.6474 H         1 UNK         0.0900 
     70 H70       -80.6206   22.7266  -70.5256 H         1 UNK         0.2959 
     71 H71       -81.9571   24.3719  -70.5979 H         1 UNK         0.1079 
     72 H72       -81.2512   26.4512  -69.8751 H         1 UNK         0.0837 
     73 H73       -79.9949   25.3915  -69.3335 H         1 UNK         0.0837 
     74 H74       -80.8253   28.6016  -70.6340 H         1 UNK         0.0685 
     75 H75       -79.4971   28.7058  -69.5013 H         1 UNK         0.0685 
     76 H76       -80.6814   29.5504  -72.8764 H         1 UNK         0.1434 
     77 H77       -77.5387   32.3615  -73.6580 H         1 UNK         0.1329 
     78 H78       -77.3845   29.8806  -70.1583 H         1 UNK         0.1335 
     79 H79       -75.8360   31.7675  -70.3947 H         1 UNK         0.0680 
     80 H80       -76.0721   32.9269  -71.6743 H         1 UNK         0.0680 
     81 H81       -74.4804   29.7649  -70.4458 H         1 UNK         0.1032 
     82 H82       -75.1074   28.8864  -71.8197 H         1 UNK         0.1032 
     83 H83       -72.1976   29.7852  -71.5199 H         1 UNK         0.0461 
     84 H84       -72.1265   25.8784  -70.6211 H         1 UNK         0.3453 
     85 H85       -72.3407   26.4281  -72.2703 H         1 UNK         0.3453 
     86 H86       -73.5750   28.5527  -73.7456 H         1 UNK         0.2984 
     87 H87       -72.5595   28.7953  -75.6966 H         1 UNK         0.0554 
     88 H88       -70.4138   30.0910  -75.8037 H         1 UNK         0.0847 
     89 H89       -70.6308   29.0132  -77.1721 H         1 UNK         0.0847 
     90 H90       -69.5204   28.5780  -75.8735 H         1 UNK         0.0847 
     91 H91       -71.5137   26.7995  -76.7849 H         1 UNK         0.3141 
     92 H92       -71.2233   24.3385  -76.4134 H         1 UNK         0.0743 
     93 H93       -72.0375   23.1223  -74.4009 H         1 UNK         0.0784 
     94 H94       -73.7038   23.4461  -74.8559 H         1 UNK         0.0784 
     95 H95       -72.6881   22.4368  -75.8786 H         1 UNK         0.0784 
     96 H96       -74.0783   24.4517  -77.0621 H         1 UNK         0.3213 
     97 H97       -73.3414   26.0049  -80.2428 H         1 UNK         0.0855 
     98 H98       -74.3790   23.2574  -79.3657 H         1 UNK         0.0814 
     99 H99       -72.9255   23.5330  -80.3187 H         1 UNK         0.0814 
    100 H100      -74.4959   23.9550  -80.9796 H         1 UNK         0.0814 
    101 H101      -75.4529   25.6067  -78.1824 H         1 UNK         0.3105 
    102 H102      -77.6557   27.7255  -80.0796 H         1 UNK         0.0547 
    103 H103      -79.2740   25.9277  -79.5097 H         1 UNK         0.0837 
    104 H104      -78.2195   25.4206  -80.8199 H         1 UNK         0.0837 
    105 H105      -77.9486   24.8090  -79.1952 H         1 UNK         0.0837 
    106 H106      -78.0346   26.6795  -77.5042 H         1 UNK         0.3020 
    107 H107      -76.7425   29.4738  -75.6981 H         1 UNK         0.1245 
    108 H108      -79.2877   28.8366  -75.0452 H         1 UNK         0.0781 
    109 H109      -79.4863   28.6467  -76.7504 H         1 UNK         0.0781 
    110 H110      -80.9070   31.0246  -74.7215 H         1 UNK         0.0836 
    111 H111      -80.0103   32.5199  -74.6779 H         1 UNK         0.0836 
    112 H112      -77.8615   26.7795  -75.2732 H         1 UNK         0.3022 
    113 H113      -74.7939   25.4072  -74.4488 H         1 UNK         0.0747 
    114 H114      -76.7238   26.2069  -72.2251 H         1 UNK         0.0793 
    115 H115      -75.6114   24.8416  -72.1673 H         1 UNK         0.0793 
    116 H116      -74.9894   26.4813  -72.2363 H         1 UNK         0.0793 
    117 H117      -77.4698   24.5162  -73.9275 H         1 UNK         0.3047 
    118 H118      -78.1001   23.4058  -77.2736 H         1 UNK         0.0822 
    119 H119      -76.7405   21.5734  -76.2500 H         1 UNK         0.0807 
    120 H120      -78.4589   21.2433  -76.1111 H         1 UNK         0.0807 
    121 H121      -77.5522   21.8153  -74.7094 H         1 UNK         0.0807 
    122 H122      -79.6899   23.1200  -74.9811 H         1 UNK         0.2946 
    123 H123      -81.2930   26.3187  -74.9639 H         1 UNK         0.1144 
    124 H124      -83.2379   24.7687  -75.0422 H         1 UNK         0.0793 
    125 H125      -82.1988   23.4308  -75.5263 H         1 UNK         0.0793 
    126 H126      -82.4496   24.7943  -76.6096 H         1 UNK         0.0793 
    127 H127      -79.9841   24.3736  -73.3783 H         1 UNK         0.2896 
@<TRIPOS>BOND
     1    1    2 1    
     2    1   67 1    
     3    1   68 1    
     4    1   69 1    
     5    2    3 2    
     6    2    4 am   BACKBONE|DICT|INTERRES
     7    4    5 1    
     8    4   70 1    
     9    5    6 1    
    10    5   65 1    
    11    5   71 1    
    12    6    7 1    
    13    6   72 1    
    14    6   73 1    
    15    7    8 1    
    16    8    9 1    
    17    8   74 1    
    18    8   75 1    
    19    9   10 ar   
    20    9   14 ar   
    21   10   11 ar   
    22   10   76 1    
    23   11   12 ar   
    24   11   48 1    
    25   12   13 ar   
    26   12   77 1    
    27   13   14 ar   
    28   13   15 1    
    29   14   78 1    
    30   15   16 1    
    31   15   79 1    
    32   15   80 1    
    33   16   17 1    
    34   17   18 1    
    35   17   81 1    
    36   17   82 1    
    37   18   19 1    
    38   18   22 1    
    39   18   83 1    
    40   19   20 am   BACKBONE|DICT|INTERRES
    41   19   21 2    
    42   20   84 1    
    43   20   85 1    
    44   22   23 am   BACKBONE|DICT|INTERRES
    45   22   86 1    
    46   23   24 2    
    47   23   25 1    
    48   25   26 1    
    49   25   27 1    
    50   25   87 1    
    51   26   88 1    
    52   26   89 1    
    53   26   90 1    
    54   27   28 am   BACKBONE|DICT|INTERRES
    55   27   91 1    
    56   28   29 2    
    57   28   30 1    
    58   30   31 1    
    59   30   32 1    
    60   30   92 1    
    61   31   93 1    
    62   31   94 1    
    63   31   95 1    
    64   32   33 am   BACKBONE|DICT|INTERRES
    65   32   96 1    
    66   33   34 2    
    67   33   35 1    
    68   35   36 1    
    69   35   37 1    
    70   35   97 1    
    71   36   98 1    
    72   36   99 1    
    73   36  100 1    
    74   37   38 am   BACKBONE|DICT|INTERRES
    75   37  101 1    
    76   38   39 2    
    77   38   40 1    
    78   40   41 1    
    79   40   42 1    
    80   40  102 1    
    81   41  103 1    
    82   41  104 1    
    83   41  105 1    
    84   42   43 am   BACKBONE|DICT|INTERRES
    85   42  106 1    
    86   43   44 2    
    87   43   45 1    
    88   45   46 1    
    89   45   49 1    
    90   45  107 1    
    91   46   47 1    
    92   46  108 1    
    93   46  109 1    
    94   47   48 1    
    95   48  110 1    
    96   48  111 1    
    97   49   50 am   BACKBONE|DICT|INTERRES
    98   49  112 1    
    99   50   51 2    
   100   50   52 1    
   101   52   53 1    
   102   52   54 1    
   103   52  113 1    
   104   53  114 1    
   105   53  115 1    
   106   53  116 1    
   107   54   55 am   BACKBONE|DICT|INTERRES
   108   54  117 1    
   109   55   56 2    
   110   55   57 1    
   111   57   58 1    
   112   57   59 1    
   113   57  118 1    
   114   58  119 1    
   115   58  120 1    
   116   58  121 1    
   117   59   60 am   BACKBONE|DICT|INTERRES
   118   59  122 1    
   119   60   61 2    
   120   60   62 1    
   121   62   63 1    
   122   62   64 1    
   123   62  123 1    
   124   63  124 1    
   125   63  125 1    
   126   63  126 1    
   127   64   65 am   BACKBONE|DICT|INTERRES
   128   64  127 1    
   129   65   66 2    
@<TRIPOS>SUBSTRUCTURE
     1 UNK         1 GROUP             0       ****    0 ROOT    
