@<TRIPOS>MOLECULE
3R135
127   129    1
SMALL
USER_CHARGES


@<TRIPOS>ATOM
      1 CA        -83.9893   25.7533  -74.5106 C.3       0 UNK        -0.1998 
      2 C         -82.8764   26.7634  -74.7421 C.2       0 UNK         0.4909 
      3 O         -82.5334   27.0457  -75.8903 O.2       0 UNK        -0.5240 
      4 N         -82.3053   27.3152  -73.6643 N.am      1 UNK        -0.4739 
      5 CA        -81.1694   28.2407  -73.7164 C.3       1 UNK         0.0864 
      6 C6        -80.9868   29.0135  -72.3868 C.3       11 UNK        -0.0881 
      7 S7        -80.7345   27.9519  -70.9205 S.3       11 UNK        -0.2682 
      8 C8        -79.2519   28.6997  -70.1736 C.3       11 UNK         0.0289 
      9 C9        -78.0037   28.5083  -71.0249 C.ar      11 UNK        -0.0687 
     10 C10       -77.4080   27.2478  -71.1222 C.ar      11 UNK        -0.0823 
     11 C11       -76.2310   27.0721  -71.8563 C.ar      11 UNK        -0.0830 
     12 C12       -75.6505   28.1696  -72.4992 C.ar      11 UNK        -0.1021 
     13 C13       -76.2412   29.4341  -72.4161 C.ar      11 UNK        -0.0753 
     14 C14       -77.4205   29.5960  -71.6825 C.ar      11 UNK        -0.0933 
     15 C15       -75.5987   30.6275  -73.1055 C.3       11 UNK         0.0166 
     16 S16       -74.8713   31.7694  -71.8889 S.3       11 UNK        -0.2615 
     17 C17       -73.8209   32.8135  -72.9575 C.3       11 UNK        -0.0865 
     18 CA        -72.2875   32.5415  -72.8623 C.3       10 UNK         0.0862 
     19 C         -71.5934   32.9035  -71.5119 C.2       10 UNK         0.5551 
     20 N         -72.2602   33.5996  -70.6003 N.am      10 UNK        -0.7319 
     21 O         -70.4135   32.6171  -71.3158 O.2       10 UNK        -0.5018 
     22 N         -71.8999   31.2390  -73.4293 N.am      10 UNK        -0.4509 
     23 C         -71.8674   30.0415  -72.8279 C.2       10 UNK         0.4899 
     24 O         -72.1613   29.8416  -71.6488 O.2       10 UNK        -0.4839 
     25 CA        -71.4400   28.8568  -73.7188 C.3       9 UNK         0.0222 
     26 CB        -71.4931   27.5036  -72.9836 C.3       9 UNK        -0.1966 
     27 N         -72.2435   28.7571  -74.9403 N.am      9 UNK        -0.4218 
     28 C         -72.1143   29.5050  -76.0426 C.2       9 UNK         0.5020 
     29 O         -71.3014   30.4269  -76.1424 O.2       9 UNK        -0.5274 
     30 CA        -73.0413   29.1528  -77.2244 C.3       8 UNK         0.0270 
     31 CB        -72.7625   30.0077  -78.4750 C.3       8 UNK        -0.1976 
     32 N         -72.9525   27.7332  -77.5856 N.am      8 UNK        -0.4313 
     33 C         -73.5331   26.7344  -76.9107 C.2       8 UNK         0.5041 
     34 O         -74.2214   26.9102  -75.9042 O.2       8 UNK        -0.5577 
     35 CA        -73.2365   25.3109  -77.3832 C.3       7 UNK         0.0284 
     36 CB        -72.1894   24.6481  -76.4684 C.3       7 UNK        -0.1958 
     37 N         -74.4763   24.5427  -77.3700 N.am      7 UNK        -0.4454 
     38 C         -74.6984   23.4306  -78.0803 C.2       7 UNK         0.5089 
     39 O         -73.8622   22.9195  -78.8285 O.2       7 UNK        -0.5125 
     40 CA        -76.0906   22.7900  -77.9270 C.3       6 UNK         0.0408 
     41 CB        -76.2055   21.3972  -78.5818 C.3       6 UNK        -0.1791 
     42 N         -76.5355   22.7620  -76.5308 N.am      6 UNK        -0.4762 
     43 C         -75.9969   22.0859  -75.5037 C.2       6 UNK         0.5007 
     44 O         -75.0415   21.3162  -75.6108 O.2       6 UNK        -0.5032 
     45 CA        -76.6389   22.2938  -74.1145 C.3       5 UNK         0.0783 
     46 C46       -75.7478   23.1676  -73.1942 C.3       11 UNK        -0.0857 
     47 S47       -75.8405   24.9512  -73.5752 S.3       11 UNK        -0.2512 
     48 C48       -75.5817   25.6996  -71.9391 C.3       11 UNK         0.0225 
     49 N         -78.0070   22.8164  -74.2113 N.am      5 UNK        -0.4615 
     50 C         -79.0932   22.0772  -74.4645 C.2       4 UNK         0.5053 
     51 O         -79.0875   20.8487  -74.5418 O.2       4 UNK        -0.5105 
     52 CA        -80.3992   22.8507  -74.7004 C.3       4 UNK         0.0263 
     53 CB        -80.9899   23.3446  -73.3694 C.3       4 UNK        -0.1981 
     54 N         -80.2007   23.9761  -75.6217 N.am      4 UNK        -0.4224 
     55 C         -80.0202   23.8277  -76.9458 C.2       3 UNK         0.4895 
     56 O         -80.0495   22.7352  -77.5126 O.2       3 UNK        -0.5091 
     57 CA        -79.7608   25.0822  -77.8017 C.3       3 UNK         0.0250 
     58 CB        -81.0046   25.4402  -78.6309 C.3       3 UNK        -0.1996 
     59 N         -79.3422   26.2475  -77.0220 N.am      3 UNK        -0.4254 
     60 C         -78.1105   26.4141  -76.5179 C.2       2 UNK         0.5004 
     61 O         -77.1904   25.6237  -76.7191 O.2       2 UNK        -0.5226 
     62 CA        -77.8648   27.6463  -75.6237 C.3       2 UNK         0.0269 
     63 CB        -77.1645   28.7562  -76.4233 C.3       2 UNK        -0.1926 
     64 N         -79.0758   28.1961  -74.9998 N.am      2 UNK        -0.4687 
     65 C         -79.8886   27.5135  -74.1813 C.2       1 UNK         0.5165 
     66 O         -79.6879   26.3419  -73.8503 O.2       1 UNK        -0.5079 
     67 H67       -84.1263   25.5341  -73.4519 H         1 UNK         0.0900 
     68 H68       -84.9303   26.1363  -74.9043 H         1 UNK         0.0900 
     69 H69       -83.7603   24.8198  -75.0241 H         1 UNK         0.0900 
     70 H70       -82.5848   27.0274  -72.7372 H         1 UNK         0.2959 
     71 H71       -81.4097   28.9838  -74.4807 H         1 UNK         0.1079 
     72 H72       -80.1682   29.7281  -72.4803 H         1 UNK         0.0837 
     73 H73       -81.8739   29.6207  -72.2003 H         1 UNK         0.0837 
     74 H74       -79.0874   28.2459  -69.1953 H         1 UNK         0.0685 
     75 H75       -79.4387   29.7587  -69.9883 H         1 UNK         0.0685 
     76 H76       -77.8627   26.4052  -70.6194 H         1 UNK         0.1434 
     77 H77       -74.7418   28.0345  -73.0690 H         1 UNK         0.1329 
     78 H78       -77.8686   30.5773  -71.6065 H         1 UNK         0.1335 
     79 H79       -76.3450   31.1564  -73.6999 H         1 UNK         0.0680 
     80 H80       -74.8259   30.2929  -73.7995 H         1 UNK         0.0680 
     81 H81       -74.1418   32.6967  -73.9936 H         1 UNK         0.1032 
     82 H82       -74.0308   33.8582  -72.7229 H         1 UNK         0.1032 
     83 H83       -71.8352   33.2526  -73.5546 H         1 UNK         0.0461 
     84 H84       -71.7988   33.8546  -69.7413 H         1 UNK         0.3453 
     85 H85       -73.2345   33.8199  -70.7337 H         1 UNK         0.3453 
     86 H86       -71.6076   31.2567  -74.4018 H         1 UNK         0.2984 
     87 H87       -70.4011   29.0336  -74.0048 H         1 UNK         0.0554 
     88 H88       -70.8576   27.5145  -72.0971 H         1 UNK         0.0847 
     89 H89       -71.1426   26.6912  -73.6205 H         1 UNK         0.0847 
     90 H90       -72.5040   27.2591  -72.6567 H         1 UNK         0.0847 
     91 H91       -72.9618   28.0362  -74.9657 H         1 UNK         0.3141 
     92 H92       -74.0608   29.3699  -76.8995 H         1 UNK         0.0743 
     93 H93       -71.7509   29.8540  -78.8530 H         1 UNK         0.0784 
     94 H94       -73.4613   29.7749  -79.2787 H         1 UNK         0.0784 
     95 H95       -72.8703   31.0706  -78.2542 H         1 UNK         0.0784 
     96 H96       -72.3574   27.5085  -78.3706 H         1 UNK         0.3213 
     97 H97       -72.8529   25.3494  -78.4051 H         1 UNK         0.0855 
     98 H98       -72.5526   24.5640  -75.4429 H         1 UNK         0.0814 
     99 H99       -71.2666   25.2292  -76.4424 H         1 UNK         0.0814 
    100 H100      -71.9325   23.6469  -76.8145 H         1 UNK         0.0814 
    101 H101      -75.2347   24.9445  -76.8209 H         1 UNK         0.3105 
    102 H102      -76.7843   23.4498  -78.4495 H         1 UNK         0.0547 
    103 H103      -77.2073   20.9851  -78.4606 H         1 UNK         0.0837 
    104 H104      -75.4951   20.6869  -78.1584 H         1 UNK         0.0837 
    105 H105      -76.0061   21.4537  -79.6524 H         1 UNK         0.0837 
    106 H106      -77.2547   23.4377  -76.3074 H         1 UNK         0.3020 
    107 H107      -76.6882   21.2999  -73.6630 H         1 UNK         0.1245 
    108 H108      -74.7038   22.8501  -73.2324 H         1 UNK         0.0781 
    109 H109      -76.0637   23.0107  -72.1623 H         1 UNK         0.0781 
    110 H110      -74.5111   25.7816  -71.7466 H         1 UNK         0.0836 
    111 H111      -75.9852   25.0518  -71.1600 H         1 UNK         0.0836 
    112 H112      -78.0982   23.8209  -74.1390 H         1 UNK         0.3022 
    113 H113      -81.1197   22.1637  -75.1499 H         1 UNK         0.0747 
    114 H114      -81.9241   23.8826  -73.5230 H         1 UNK         0.0793 
    115 H115      -81.2057   22.5053  -72.7071 H         1 UNK         0.0793 
    116 H116      -80.3062   24.0069  -72.8375 H         1 UNK         0.0793 
    117 H117      -80.1285   24.8994  -75.2049 H         1 UNK         0.3047 
    118 H118      -78.9581   24.8342  -78.4997 H         1 UNK         0.0822 
    119 H119      -80.8246   26.3080  -79.2656 H         1 UNK         0.0807 
    120 H120      -81.8655   25.6573  -77.9990 H         1 UNK         0.0807 
    121 H121      -81.2857   24.6143  -79.2858 H         1 UNK         0.0807 
    122 H122      -80.0566   26.9270  -76.7981 H         1 UNK         0.2946 
    123 H123      -77.1948   27.3240  -74.8238 H         1 UNK         0.1144 
    124 H124      -77.8167   29.1776  -77.1889 H         1 UNK         0.0793 
    125 H125      -76.2794   28.3698  -76.9293 H         1 UNK         0.0793 
    126 H126      -76.8352   29.5658  -75.7724 H         1 UNK         0.0793 
    127 H127      -79.3060   29.1506  -75.2361 H         1 UNK         0.2896 
@<TRIPOS>BOND
     1    1    2 1    
     2    1   67 1    
     3    1   68 1    
     4    1   69 1    
     5    2    3 2    
     6    2    4 am   BACKBONE|DICT|INTERRES
     7    4    5 1    
     8    4   70 1    
     9    5    6 1    
    10    5   65 1    
    11    5   71 1    
    12    6    7 1    
    13    6   72 1    
    14    6   73 1    
    15    7    8 1    
    16    8    9 1    
    17    8   74 1    
    18    8   75 1    
    19    9   10 ar   
    20    9   14 ar   
    21   10   11 ar   
    22   10   76 1    
    23   11   12 ar   
    24   11   48 1    
    25   12   13 ar   
    26   12   77 1    
    27   13   14 ar   
    28   13   15 1    
    29   14   78 1    
    30   15   16 1    
    31   15   79 1    
    32   15   80 1    
    33   16   17 1    
    34   17   18 1    
    35   17   81 1    
    36   17   82 1    
    37   18   19 1    
    38   18   22 1    
    39   18   83 1    
    40   19   20 am   BACKBONE|DICT|INTERRES
    41   19   21 2    
    42   20   84 1    
    43   20   85 1    
    44   22   23 am   BACKBONE|DICT|INTERRES
    45   22   86 1    
    46   23   24 2    
    47   23   25 1    
    48   25   26 1    
    49   25   27 1    
    50   25   87 1    
    51   26   88 1    
    52   26   89 1    
    53   26   90 1    
    54   27   28 am   BACKBONE|DICT|INTERRES
    55   27   91 1    
    56   28   29 2    
    57   28   30 1    
    58   30   31 1    
    59   30   32 1    
    60   30   92 1    
    61   31   93 1    
    62   31   94 1    
    63   31   95 1    
    64   32   33 am   BACKBONE|DICT|INTERRES
    65   32   96 1    
    66   33   34 2    
    67   33   35 1    
    68   35   36 1    
    69   35   37 1    
    70   35   97 1    
    71   36   98 1    
    72   36   99 1    
    73   36  100 1    
    74   37   38 am   BACKBONE|DICT|INTERRES
    75   37  101 1    
    76   38   39 2    
    77   38   40 1    
    78   40   41 1    
    79   40   42 1    
    80   40  102 1    
    81   41  103 1    
    82   41  104 1    
    83   41  105 1    
    84   42   43 am   BACKBONE|DICT|INTERRES
    85   42  106 1    
    86   43   44 2    
    87   43   45 1    
    88   45   46 1    
    89   45   49 1    
    90   45  107 1    
    91   46   47 1    
    92   46  108 1    
    93   46  109 1    
    94   47   48 1    
    95   48  110 1    
    96   48  111 1    
    97   49   50 am   BACKBONE|DICT|INTERRES
    98   49  112 1    
    99   50   51 2    
   100   50   52 1    
   101   52   53 1    
   102   52   54 1    
   103   52  113 1    
   104   53  114 1    
   105   53  115 1    
   106   53  116 1    
   107   54   55 am   BACKBONE|DICT|INTERRES
   108   54  117 1    
   109   55   56 2    
   110   55   57 1    
   111   57   58 1    
   112   57   59 1    
   113   57  118 1    
   114   58  119 1    
   115   58  120 1    
   116   58  121 1    
   117   59   60 am   BACKBONE|DICT|INTERRES
   118   59  122 1    
   119   60   61 2    
   120   60   62 1    
   121   62   63 1    
   122   62   64 1    
   123   62  123 1    
   124   63  124 1    
   125   63  125 1    
   126   63  126 1    
   127   64   65 am   BACKBONE|DICT|INTERRES
   128   64  127 1    
   129   65   66 2    
@<TRIPOS>SUBSTRUCTURE
     1 UNK         1 GROUP             0       ****    0 ROOT    
