@<TRIPOS>MOLECULE
3R135
127   129    1
SMALL
USER_CHARGES


@<TRIPOS>ATOM
      1 CA        -77.0701   26.5686  -72.3054 C.3       0 UNK        -0.1998 
      2 C         -78.2868   26.0679  -71.5488 C.2       0 UNK         0.4909 
      3 O         -78.2413   24.9945  -70.9489 O.2       0 UNK        -0.5240 
      4 N         -79.3751   26.8452  -71.5703 N.am      1 UNK        -0.4739 
      5 CA        -80.6081   26.5864  -70.8115 C.3       1 UNK         0.0864 
      6 C6        -81.3660   27.8992  -70.4980 C.3       11 UNK        -0.0881 
      7 S7        -80.3310   29.0570  -69.5351 S.3       11 UNK        -0.2682 
      8 C8        -80.2812   30.5264  -70.6068 C.3       11 UNK         0.0289 
      9 C9        -79.4352   30.3307  -71.8595 C.ar      11 UNK        -0.0687 
     10 C10       -80.0520   30.1160  -73.0964 C.ar      11 UNK        -0.0823 
     11 C11       -79.2973   30.0455  -74.2715 C.ar      11 UNK        -0.0830 
     12 C12       -77.9076   30.1945  -74.1946 C.ar      11 UNK        -0.1021 
     13 C13       -77.2744   30.3918  -72.9653 C.ar      11 UNK        -0.0753 
     14 C14       -78.0422   30.4492  -71.7975 C.ar      11 UNK        -0.0933 
     15 C15       -75.7705   30.6222  -72.9269 C.3       11 UNK         0.0166 
     16 S16       -74.8321   29.1406  -73.4181 S.3       11 UNK        -0.2615 
     17 C17       -74.0343   28.6796  -71.8416 C.3       11 UNK        -0.0865 
     18 CA        -72.7240   29.4756  -71.5666 C.3       10 UNK         0.0862 
     19 C         -72.1227   29.1744  -70.1593 C.2       10 UNK         0.5551 
     20 N         -70.8088   29.2307  -69.9784 N.am      10 UNK        -0.7319 
     21 O         -72.8564   28.9191  -69.2073 O.2       10 UNK        -0.5018 
     22 N         -71.7622   29.4155  -72.6832 N.am      10 UNK        -0.4509 
     23 C         -71.1245   28.3280  -73.1311 C.2       10 UNK         0.4899 
     24 O         -71.2433   27.2028  -72.6437 O.2       10 UNK        -0.4839 
     25 CA        -70.2142   28.5439  -74.3528 C.3       9 UNK         0.0222 
     26 CB        -69.0746   27.5109  -74.4176 C.3       9 UNK        -0.1966 
     27 N         -70.9849   28.4752  -75.5927 N.am      9 UNK        -0.4218 
     28 C         -71.8421   29.3947  -76.0499 C.2       9 UNK         0.5020 
     29 O         -72.0201   30.4835  -75.5010 O.2       9 UNK        -0.5274 
     30 CA        -72.6369   29.0697  -77.3327 C.3       8 UNK         0.0270 
     31 CB        -71.9719   29.7139  -78.5646 C.3       8 UNK        -0.1976 
     32 N         -72.9282   27.6458  -77.5779 N.am      8 UNK        -0.4313 
     33 C         -72.0764   26.6336  -77.8141 C.2       8 UNK         0.5041 
     34 O         -70.8516   26.7594  -77.8025 O.2       8 UNK        -0.5577 
     35 CA        -72.6649   25.2338  -78.0685 C.3       7 UNK         0.0284 
     36 CB        -72.3991   24.3164  -76.8631 C.3       7 UNK        -0.1958 
     37 N         -74.1003   25.2570  -78.3605 N.am      7 UNK        -0.4454 
     38 C         -74.6168   25.5909  -79.5537 C.2       7 UNK         0.5089 
     39 O         -73.9278   25.8409  -80.5433 O.2       7 UNK        -0.5125 
     40 CA        -76.1513   25.6799  -79.6799 C.3       6 UNK         0.0408 
     41 CB        -76.6982   24.4421  -80.4078 C.3       6 UNK        -0.1791 
     42 N         -76.8635   25.8403  -78.4089 N.am      6 UNK        -0.4762 
     43 C         -76.7287   26.8793  -77.5676 C.2       6 UNK         0.5007 
     44 O         -75.9625   27.8221  -77.7724 O.2       6 UNK        -0.5032 
     45 CA        -77.5175   26.8100  -76.2374 C.3       5 UNK         0.0783 
     46 C46       -78.9484   27.3908  -76.3824 C.3       11 UNK        -0.0857 
     47 S47       -79.0396   29.1256  -76.9413 S.3       11 UNK        -0.2512 
     48 C48       -80.0225   29.8947  -75.6086 C.3       11 UNK         0.0225 
     49 N         -77.5902   25.4420  -75.7023 N.am      5 UNK        -0.4615 
     50 C         -76.5581   24.6029  -75.5149 C.2       4 UNK         0.5053 
     51 O         -75.3833   24.9399  -75.6476 O.2       4 UNK        -0.5105 
     52 CA        -76.8696   23.1287  -75.1829 C.3       4 UNK         0.0263 
     53 CB        -76.5637   22.8308  -73.7067 C.3       4 UNK        -0.1981 
     54 N         -78.2441   22.7126  -75.4781 N.am      4 UNK        -0.4224 
     55 C         -78.8453   22.7517  -76.6775 C.2       3 UNK         0.4895 
     56 O         -78.2693   23.0601  -77.7213 O.2       3 UNK        -0.5091 
     57 CA        -80.3625   22.4718  -76.7062 C.3       3 UNK         0.0250 
     58 CB        -80.6301   21.0217  -77.1395 C.3       3 UNK        -0.1996 
     59 N         -81.0622   22.7370  -75.4380 N.am      3 UNK        -0.4254 
     60 C         -81.0585   23.9039  -74.7748 C.2       2 UNK         0.5004 
     61 O         -80.4521   24.9013  -75.1734 O.2       2 UNK        -0.5226 
     62 CA        -81.7826   23.9612  -73.4192 C.3       2 UNK         0.0269 
     63 CB        -81.7553   22.6104  -72.6649 C.3       2 UNK        -0.1926 
     64 N         -81.1314   25.0072  -72.6329 N.am      2 UNK        -0.4687 
     65 C         -81.5307   25.5335  -71.4705 C.2       1 UNK         0.5165 
     66 O         -82.5799   25.2140  -70.9091 O.2       1 UNK        -0.5079 
     67 H67       -77.3399   27.3104  -73.0565 H         1 UNK         0.0900 
     68 H68       -76.5569   25.7484  -72.8034 H         1 UNK         0.0900 
     69 H69       -76.3731   27.0269  -71.6067 H         1 UNK         0.0900 
     70 H70       -79.3434   27.7316  -72.0557 H         1 UNK         0.2959 
     71 H71       -80.3190   26.1487  -69.8530 H         1 UNK         0.1079 
     72 H72       -81.7150   28.3727  -71.4165 H         1 UNK         0.0837 
     73 H73       -82.2603   27.6951  -69.9059 H         1 UNK         0.0837 
     74 H74       -81.3002   30.8156  -70.8688 H         1 UNK         0.0685 
     75 H75       -79.8750   31.3591  -70.0305 H         1 UNK         0.0685 
     76 H76       -81.1300   30.0454  -73.1504 H         1 UNK         0.1434 
     77 H77       -77.3061   30.1820  -75.0928 H         1 UNK         0.1329 
     78 H78       -77.5634   30.6294  -70.8446 H         1 UNK         0.1335 
     79 H79       -75.5210   31.4296  -73.6168 H         1 UNK         0.0680 
     80 H80       -75.4556   30.9652  -71.9405 H         1 UNK         0.0680 
     81 H81       -73.8260   27.6088  -71.8655 H         1 UNK         0.1032 
     82 H82       -74.7540   28.8255  -71.0341 H         1 UNK         0.1032 
     83 H83       -73.0056   30.5272  -71.5077 H         1 UNK         0.0461 
     84 H84       -70.1981   29.4503  -70.7488 H         1 UNK         0.3453 
     85 H85       -70.4262   29.0463  -69.0645 H         1 UNK         0.3453 
     86 H86       -71.6467   30.2739  -73.2057 H         1 UNK         0.2984 
     87 H87       -69.7630   29.5353  -74.2755 H         1 UNK         0.0554 
     88 H88       -69.4529   26.4962  -74.5493 H         1 UNK         0.0847 
     89 H89       -68.4842   27.5229  -73.5005 H         1 UNK         0.0847 
     90 H90       -68.3950   27.7224  -75.2433 H         1 UNK         0.0847 
     91 H91       -70.8586   27.6490  -76.1726 H         1 UNK         0.3141 
     92 H92       -73.6134   29.5404  -77.2055 H         1 UNK         0.0743 
     93 H93       -70.9822   29.2985  -78.7568 H         1 UNK         0.0784 
     94 H94       -72.5762   29.5709  -79.4606 H         1 UNK         0.0784 
     95 H95       -71.8501   30.7888  -78.4239 H         1 UNK         0.0784 
     96 H96       -73.9199   27.4283  -77.5907 H         1 UNK         0.3213 
     97 H97       -72.1423   24.8131  -78.9305 H         1 UNK         0.0855 
     98 H98       -72.8025   24.7324  -75.9394 H         1 UNK         0.0814 
     99 H99       -71.3279   24.1781  -76.7107 H         1 UNK         0.0814 
    100 H100      -72.8358   23.3281  -77.0074 H         1 UNK         0.0814 
    101 H101      -74.7241   25.0882  -77.5773 H         1 UNK         0.3105 
    102 H102      -76.3733   26.5584  -80.2891 H         1 UNK         0.0547 
    103 H103      -76.2287   24.3229  -81.3853 H         1 UNK         0.0837 
    104 H104      -76.5110   23.5280  -79.8429 H         1 UNK         0.0837 
    105 H105      -77.7729   24.5189  -80.5733 H         1 UNK         0.0837 
    106 H106      -77.4709   25.0747  -78.1372 H         1 UNK         0.3020 
    107 H107      -76.9680   27.4134  -75.5116 H         1 UNK         0.1245 
    108 H108      -79.4602   27.3158  -75.4220 H         1 UNK         0.0781 
    109 H109      -79.5344   26.7854  -77.0766 H         1 UNK         0.0781 
    110 H110      -80.9407   29.3192  -75.4786 H         1 UNK         0.0836 
    111 H111      -80.3284   30.8874  -75.9411 H         1 UNK         0.0836 
    112 H112      -78.5311   25.0872  -75.5578 H         1 UNK         0.3022 
    113 H113      -76.2051   22.5205  -75.8000 H         1 UNK         0.0747 
    114 H114      -76.6366   21.7639  -73.4948 H         1 UNK         0.0793 
    115 H115      -75.5511   23.1415  -73.4442 H         1 UNK         0.0793 
    116 H116      -77.2494   23.3521  -73.0381 H         1 UNK         0.0793 
    117 H117      -78.8073   22.4415  -74.6860 H         1 UNK         0.3047 
    118 H118      -80.7924   23.1384  -77.4568 H         1 UNK         0.0822 
    119 H119      -81.6961   20.8367  -77.2736 H         1 UNK         0.0807 
    120 H120      -80.2526   20.3053  -76.4087 H         1 UNK         0.0807 
    121 H121      -80.1442   20.8025  -78.0916 H         1 UNK         0.0807 
    122 H122      -81.5734   21.9628  -75.0390 H         1 UNK         0.2946 
    123 H123      -82.8171   24.2561  -73.6064 H         1 UNK         0.1144 
    124 H124      -82.2957   21.8349  -73.2084 H         1 UNK         0.0793 
    125 H125      -82.2320   22.6846  -71.6878 H         1 UNK         0.0793 
    126 H126      -80.7351   22.2587  -72.5055 H         1 UNK         0.0793 
    127 H127      -80.2939   25.3795  -73.0624 H         1 UNK         0.2896 
@<TRIPOS>BOND
     1    1    2 1    
     2    1   67 1    
     3    1   68 1    
     4    1   69 1    
     5    2    3 2    
     6    2    4 am   BACKBONE|DICT|INTERRES
     7    4    5 1    
     8    4   70 1    
     9    5    6 1    
    10    5   65 1    
    11    5   71 1    
    12    6    7 1    
    13    6   72 1    
    14    6   73 1    
    15    7    8 1    
    16    8    9 1    
    17    8   74 1    
    18    8   75 1    
    19    9   10 ar   
    20    9   14 ar   
    21   10   11 ar   
    22   10   76 1    
    23   11   12 ar   
    24   11   48 1    
    25   12   13 ar   
    26   12   77 1    
    27   13   14 ar   
    28   13   15 1    
    29   14   78 1    
    30   15   16 1    
    31   15   79 1    
    32   15   80 1    
    33   16   17 1    
    34   17   18 1    
    35   17   81 1    
    36   17   82 1    
    37   18   19 1    
    38   18   22 1    
    39   18   83 1    
    40   19   20 am   BACKBONE|DICT|INTERRES
    41   19   21 2    
    42   20   84 1    
    43   20   85 1    
    44   22   23 am   BACKBONE|DICT|INTERRES
    45   22   86 1    
    46   23   24 2    
    47   23   25 1    
    48   25   26 1    
    49   25   27 1    
    50   25   87 1    
    51   26   88 1    
    52   26   89 1    
    53   26   90 1    
    54   27   28 am   BACKBONE|DICT|INTERRES
    55   27   91 1    
    56   28   29 2    
    57   28   30 1    
    58   30   31 1    
    59   30   32 1    
    60   30   92 1    
    61   31   93 1    
    62   31   94 1    
    63   31   95 1    
    64   32   33 am   BACKBONE|DICT|INTERRES
    65   32   96 1    
    66   33   34 2    
    67   33   35 1    
    68   35   36 1    
    69   35   37 1    
    70   35   97 1    
    71   36   98 1    
    72   36   99 1    
    73   36  100 1    
    74   37   38 am   BACKBONE|DICT|INTERRES
    75   37  101 1    
    76   38   39 2    
    77   38   40 1    
    78   40   41 1    
    79   40   42 1    
    80   40  102 1    
    81   41  103 1    
    82   41  104 1    
    83   41  105 1    
    84   42   43 am   BACKBONE|DICT|INTERRES
    85   42  106 1    
    86   43   44 2    
    87   43   45 1    
    88   45   46 1    
    89   45   49 1    
    90   45  107 1    
    91   46   47 1    
    92   46  108 1    
    93   46  109 1    
    94   47   48 1    
    95   48  110 1    
    96   48  111 1    
    97   49   50 am   BACKBONE|DICT|INTERRES
    98   49  112 1    
    99   50   51 2    
   100   50   52 1    
   101   52   53 1    
   102   52   54 1    
   103   52  113 1    
   104   53  114 1    
   105   53  115 1    
   106   53  116 1    
   107   54   55 am   BACKBONE|DICT|INTERRES
   108   54  117 1    
   109   55   56 2    
   110   55   57 1    
   111   57   58 1    
   112   57   59 1    
   113   57  118 1    
   114   58  119 1    
   115   58  120 1    
   116   58  121 1    
   117   59   60 am   BACKBONE|DICT|INTERRES
   118   59  122 1    
   119   60   61 2    
   120   60   62 1    
   121   62   63 1    
   122   62   64 1    
   123   62  123 1    
   124   63  124 1    
   125   63  125 1    
   126   63  126 1    
   127   64   65 am   BACKBONE|DICT|INTERRES
   128   64  127 1    
   129   65   66 2    
@<TRIPOS>SUBSTRUCTURE
     1 UNK         1 GROUP             0       ****    0 ROOT    
