@<TRIPOS>MOLECULE
3R135
127   129    1
SMALL
USER_CHARGES


@<TRIPOS>ATOM
      1 CA        -83.2834   24.7489  -66.8937 C.3       0 UNK        -0.1998 
      2 C         -83.4033   25.2550  -68.3236 C.2       0 UNK         0.4909 
      3 O         -84.4413   25.0575  -68.9554 O.2       0 UNK        -0.5240 
      4 N         -82.3523   25.9134  -68.8306 N.am      1 UNK        -0.4739 
      5 CA        -82.2556   26.4279  -70.2005 C.3       1 UNK         0.0864 
      6 C6        -81.1383   27.4981  -70.3007 C.3       11 UNK        -0.0881 
      7 S7        -81.1323   28.4344  -71.8668 S.3       11 UNK        -0.2682 
      8 C8        -79.3730   28.2993  -72.3152 C.3       11 UNK         0.0289 
      9 C9        -79.0017   29.1683  -73.5093 C.ar      11 UNK        -0.0687 
     10 C10       -79.5879   28.9419  -74.7575 C.ar      11 UNK        -0.0823 
     11 C11       -79.1857   29.6776  -75.8759 C.ar      11 UNK        -0.0830 
     12 C12       -78.2085   30.6653  -75.7378 C.ar      11 UNK        -0.1021 
     13 C13       -77.6115   30.8985  -74.4974 C.ar      11 UNK        -0.0753 
     14 C14       -78.0214   30.1583  -73.3832 C.ar      11 UNK        -0.0933 
     15 C15       -76.4866   31.9149  -74.3845 C.3       11 UNK         0.0166 
     16 S16       -74.8992   31.1779  -74.8910 S.3       11 UNK        -0.2615 
     17 C17       -74.5811   30.0418  -73.4982 C.3       11 UNK        -0.0865 
     18 CA        -73.0797   29.9785  -73.1220 C.3       10 UNK         0.0862 
     19 C         -72.8799   29.3420  -71.7122 C.2       10 UNK         0.5551 
     20 N         -72.1311   28.2579  -71.5504 N.am      10 UNK        -0.7319 
     21 O         -73.4151   29.8555  -70.7327 O.2       10 UNK        -0.5018 
     22 N         -72.2877   29.3599  -74.1969 N.am      10 UNK        -0.4509 
     23 C         -70.9660   29.5133  -74.3524 C.2       10 UNK         0.4899 
     24 O         -70.2857   30.2923  -73.6826 O.2       10 UNK        -0.4839 
     25 CA        -70.2929   28.6235  -75.4191 C.3       9 UNK         0.0222 
     26 CB        -68.7626   28.5310  -75.2438 C.3       9 UNK        -0.1966 
     27 N         -70.8823   27.2801  -75.5025 N.am      9 UNK        -0.4218 
     28 C         -71.0256   26.3893  -74.5063 C.2       9 UNK         0.5020 
     29 O         -70.5977   26.5725  -73.3663 O.2       9 UNK        -0.5274 
     30 CA        -71.8198   25.1025  -74.7968 C.3       8 UNK         0.0270 
     31 CB        -73.0222   24.9841  -73.8440 C.3       8 UNK        -0.1976 
     32 N         -72.3067   25.0522  -76.1766 N.am      8 UNK        -0.4313 
     33 C         -71.6930   24.4136  -77.1822 C.2       8 UNK         0.5041 
     34 O         -70.7055   23.6925  -77.0374 O.2       8 UNK        -0.5577 
     35 CA        -72.2502   24.6473  -78.5986 C.3       7 UNK         0.0284 
     36 CB        -73.1841   23.4975  -79.0085 C.3       7 UNK        -0.1958 
     37 N         -72.9397   25.9378  -78.7376 N.am      7 UNK        -0.4454 
     38 C         -72.3100   27.1237  -78.6896 C.2       7 UNK         0.5089 
     39 O         -71.0928   27.2340  -78.5487 O.2       7 UNK        -0.5125 
     40 CA        -73.1569   28.4076  -78.7485 C.3       6 UNK         0.0408 
     41 CB        -73.1420   28.9927  -80.1690 C.3       6 UNK        -0.1791 
     42 N         -74.5427   28.2372  -78.3114 N.am      6 UNK        -0.4762 
     43 C         -74.9360   27.8795  -77.0806 C.2       6 UNK         0.5007 
     44 O         -74.1479   27.6478  -76.1577 O.2       6 UNK        -0.5032 
     45 CA        -76.4555   27.7062  -76.8492 C.3       5 UNK         0.0783 
     46 C46       -77.3387   28.1000  -78.0779 C.3       11 UNK        -0.0857 
     47 S47       -79.1262   27.7719  -77.8631 S.3       11 UNK        -0.2512 
     48 C48       -79.7615   29.3612  -77.2448 C.3       11 UNK         0.0225 
     49 N         -76.7494   26.3635  -76.3415 N.am      5 UNK        -0.4615 
     50 C         -76.4958   25.2005  -76.9574 C.2       4 UNK         0.5053 
     51 O         -75.8785   25.1034  -78.0183 O.2       4 UNK        -0.5105 
     52 CA        -77.0495   23.9353  -76.2777 C.3       4 UNK         0.0263 
     53 CB        -76.0327   23.3678  -75.2768 C.3       4 UNK        -0.1981 
     54 N         -78.3182   24.2003  -75.5901 N.am      4 UNK        -0.4224 
     55 C         -79.4916   24.3675  -76.2181 C.2       3 UNK         0.4895 
     56 O         -79.6552   24.1475  -77.4194 O.2       3 UNK        -0.5091 
     57 CA        -80.6630   24.9131  -75.3755 C.3       3 UNK         0.0250 
     58 CB        -82.0445   24.5302  -75.9488 C.3       3 UNK        -0.1996 
     59 N         -80.5821   24.6024  -73.9406 N.am      3 UNK        -0.4254 
     60 C         -80.6477   23.3888  -73.3724 C.2       2 UNK         0.5004 
     61 O         -80.7120   22.3362  -74.0082 O.2       2 UNK        -0.5226 
     62 CA        -80.6286   23.3203  -71.8315 C.3       2 UNK         0.0269 
     63 CB        -79.2644   22.8046  -71.3419 C.3       2 UNK        -0.1926 
     64 N         -80.9423   24.5676  -71.1176 N.am      2 UNK        -0.4687 
     65 C         -82.0920   25.2572  -71.1943 C.2       1 UNK         0.5165 
     66 O         -83.0096   24.9761  -71.9658 O.2       1 UNK        -0.5079 
     67 H67       -84.0657   25.1864  -66.2741 H         1 UNK         0.0900 
     68 H68       -82.3200   25.0004  -66.4505 H         1 UNK         0.0900 
     69 H69       -83.3951   23.6653  -66.8690 H         1 UNK         0.0900 
     70 H70       -81.5331   26.0412  -68.2534 H         1 UNK         0.2959 
     71 H71       -83.2035   26.9179  -70.4363 H         1 UNK         0.1079 
     72 H72       -80.1577   27.0546  -70.1205 H         1 UNK         0.0837 
     73 H73       -81.2721   28.2325  -69.5045 H         1 UNK         0.0837 
     74 H74       -78.7673   28.5711  -71.4490 H         1 UNK         0.0685 
     75 H75       -79.1372   27.2590  -72.5431 H         1 UNK         0.0685 
     76 H76       -80.3408   28.1749  -74.8639 H         1 UNK         0.1434 
     77 H77       -77.8785   31.2244  -76.6030 H         1 UNK         0.1329 
     78 H78       -77.5540   30.3316  -72.4239 H         1 UNK         0.1335 
     79 H79       -76.4124   32.3054  -73.3683 H         1 UNK         0.0680 
     80 H80       -76.6992   32.7718  -75.0256 H         1 UNK         0.0680 
     81 H81       -75.1667   30.3806  -72.6424 H         1 UNK         0.1032 
     82 H82       -74.9611   29.0502  -73.7512 H         1 UNK         0.1032 
     83 H83       -72.7318   31.0080  -73.0157 H         1 UNK         0.0461 
     84 H84       -72.0206   27.8789  -70.6239 H         1 UNK         0.3453 
     85 H85       -71.6458   27.8209  -72.3273 H         1 UNK         0.3453 
     86 H86       -72.7835   28.7134  -74.7992 H         1 UNK         0.2984 
     87 H87       -70.4878   29.1022  -76.3797 H         1 UNK         0.0554 
     88 H88       -68.3003   29.5170  -75.3036 H         1 UNK         0.0847 
     89 H89       -68.3114   27.9162  -76.0225 H         1 UNK         0.0847 
     90 H90       -68.4916   28.1025  -74.2783 H         1 UNK         0.0847 
     91 H91       -71.2262   27.0241  -76.4195 H         1 UNK         0.3141 
     92 H92       -71.1493   24.2632  -74.6012 H         1 UNK         0.0743 
     93 H93       -73.7633   25.7639  -74.0253 H         1 UNK         0.0784 
     94 H94       -73.5096   24.0164  -73.9530 H         1 UNK         0.0784 
     95 H95       -72.7129   25.0643  -72.8008 H         1 UNK         0.0784 
     96 H96       -73.1022   25.6425  -76.3902 H         1 UNK         0.3213 
     97 H97       -71.4018   24.6506  -79.2868 H         1 UNK         0.0855 
     98 H98       -72.6368   22.5551  -79.0536 H         1 UNK         0.0814 
     99 H99       -73.6204   23.6660  -79.9931 H         1 UNK         0.0814 
    100 H100      -73.9978   23.3596  -78.2968 H         1 UNK         0.0814 
    101 H101      -73.9513   25.9131  -78.8063 H         1 UNK         0.3105 
    102 H102      -72.6911   29.1328  -78.0776 H         1 UNK         0.0547 
    103 H103      -72.1197   29.1607  -80.5111 H         1 UNK         0.0837 
    104 H104      -73.6193   28.3247  -80.8871 H         1 UNK         0.0837 
    105 H105      -73.6550   29.9537  -80.2093 H         1 UNK         0.0837 
    106 H106      -75.2511   28.3822  -79.0161 H         1 UNK         0.3020 
    107 H107      -76.6908   28.3885  -76.0329 H         1 UNK         0.1245 
    108 H108      -77.0372   27.5343  -78.9612 H         1 UNK         0.0781 
    109 H109      -77.2044   29.1547  -78.3252 H         1 UNK         0.0781 
    110 H110      -80.8491   29.3089  -77.1781 H         1 UNK         0.0836 
    111 H111      -79.5347   30.1510  -77.9628 H         1 UNK         0.0836 
    112 H112      -77.2396   26.3360  -75.4614 H         1 UNK         0.3022 
    113 H113      -77.2180   23.1869  -77.0552 H         1 UNK         0.0747 
    114 H114      -75.0720   23.1815  -75.7596 H         1 UNK         0.0793 
    115 H115      -75.8587   24.0538  -74.4475 H         1 UNK         0.0793 
    116 H116      -76.3746   22.4199  -74.8610 H         1 UNK         0.0793 
    117 H117      -78.2808   24.3570  -74.5941 H         1 UNK         0.3047 
    118 H118      -80.5823   25.9969  -75.4492 H         1 UNK         0.0822 
    119 H119      -82.1800   23.4492  -75.9921 H         1 UNK         0.0807 
    120 H120      -82.1682   24.9135  -76.9625 H         1 UNK         0.0807 
    121 H121      -82.8524   24.9460  -75.3464 H         1 UNK         0.0807 
    122 H122      -80.5415   25.3967  -73.3184 H         1 UNK         0.2946 
    123 H123      -81.3902   22.5898  -71.5493 H         1 UNK         0.1144 
    124 H124      -79.0047   21.8605  -71.8235 H         1 UNK         0.0793 
    125 H125      -78.4633   23.5120  -71.5596 H         1 UNK         0.0793 
    126 H126      -79.2703   22.6226  -70.2670 H         1 UNK         0.0793 
    127 H127      -80.2594   24.8655  -70.4364 H         1 UNK         0.2896 
@<TRIPOS>BOND
     1    1    2 1    
     2    1   67 1    
     3    1   68 1    
     4    1   69 1    
     5    2    3 2    
     6    2    4 am   BACKBONE|DICT|INTERRES
     7    4    5 1    
     8    4   70 1    
     9    5    6 1    
    10    5   65 1    
    11    5   71 1    
    12    6    7 1    
    13    6   72 1    
    14    6   73 1    
    15    7    8 1    
    16    8    9 1    
    17    8   74 1    
    18    8   75 1    
    19    9   10 ar   
    20    9   14 ar   
    21   10   11 ar   
    22   10   76 1    
    23   11   12 ar   
    24   11   48 1    
    25   12   13 ar   
    26   12   77 1    
    27   13   14 ar   
    28   13   15 1    
    29   14   78 1    
    30   15   16 1    
    31   15   79 1    
    32   15   80 1    
    33   16   17 1    
    34   17   18 1    
    35   17   81 1    
    36   17   82 1    
    37   18   19 1    
    38   18   22 1    
    39   18   83 1    
    40   19   20 am   BACKBONE|DICT|INTERRES
    41   19   21 2    
    42   20   84 1    
    43   20   85 1    
    44   22   23 am   BACKBONE|DICT|INTERRES
    45   22   86 1    
    46   23   24 2    
    47   23   25 1    
    48   25   26 1    
    49   25   27 1    
    50   25   87 1    
    51   26   88 1    
    52   26   89 1    
    53   26   90 1    
    54   27   28 am   BACKBONE|DICT|INTERRES
    55   27   91 1    
    56   28   29 2    
    57   28   30 1    
    58   30   31 1    
    59   30   32 1    
    60   30   92 1    
    61   31   93 1    
    62   31   94 1    
    63   31   95 1    
    64   32   33 am   BACKBONE|DICT|INTERRES
    65   32   96 1    
    66   33   34 2    
    67   33   35 1    
    68   35   36 1    
    69   35   37 1    
    70   35   97 1    
    71   36   98 1    
    72   36   99 1    
    73   36  100 1    
    74   37   38 am   BACKBONE|DICT|INTERRES
    75   37  101 1    
    76   38   39 2    
    77   38   40 1    
    78   40   41 1    
    79   40   42 1    
    80   40  102 1    
    81   41  103 1    
    82   41  104 1    
    83   41  105 1    
    84   42   43 am   BACKBONE|DICT|INTERRES
    85   42  106 1    
    86   43   44 2    
    87   43   45 1    
    88   45   46 1    
    89   45   49 1    
    90   45  107 1    
    91   46   47 1    
    92   46  108 1    
    93   46  109 1    
    94   47   48 1    
    95   48  110 1    
    96   48  111 1    
    97   49   50 am   BACKBONE|DICT|INTERRES
    98   49  112 1    
    99   50   51 2    
   100   50   52 1    
   101   52   53 1    
   102   52   54 1    
   103   52  113 1    
   104   53  114 1    
   105   53  115 1    
   106   53  116 1    
   107   54   55 am   BACKBONE|DICT|INTERRES
   108   54  117 1    
   109   55   56 2    
   110   55   57 1    
   111   57   58 1    
   112   57   59 1    
   113   57  118 1    
   114   58  119 1    
   115   58  120 1    
   116   58  121 1    
   117   59   60 am   BACKBONE|DICT|INTERRES
   118   59  122 1    
   119   60   61 2    
   120   60   62 1    
   121   62   63 1    
   122   62   64 1    
   123   62  123 1    
   124   63  124 1    
   125   63  125 1    
   126   63  126 1    
   127   64   65 am   BACKBONE|DICT|INTERRES
   128   64  127 1    
   129   65   66 2    
@<TRIPOS>SUBSTRUCTURE
     1 UNK         1 GROUP             0       ****    0 ROOT    
