@<TRIPOS>MOLECULE
3R135
127   129    1
SMALL
USER_CHARGES


@<TRIPOS>ATOM
      1 CA        -83.6854   26.2017  -75.7075 C.3       0 UNK        -0.1998 
      2 C         -82.2595   26.6072  -76.0460 C.2       0 UNK         0.4909 
      3 O         -81.8885   26.5970  -77.2197 O.2       0 UNK        -0.5240 
      4 N         -81.4622   26.9529  -75.0247 N.am      1 UNK        -0.4739 
      5 CA        -80.0537   27.3652  -75.0941 C.3       1 UNK         0.0864 
      6 C6        -79.4710   27.5650  -73.6767 C.3       11 UNK        -0.0881 
      7 S7        -80.2285   28.9355  -72.7441 S.3       11 UNK        -0.2682 
      8 C8        -78.7586   29.9359  -72.2976 C.3       11 UNK         0.0289 
      9 C9        -77.6359   29.1895  -71.5663 C.ar      11 UNK        -0.0687 
     10 C10       -77.8587   27.9972  -70.8633 C.ar      11 UNK        -0.0823 
     11 C11       -76.8026   27.3181  -70.2500 C.ar      11 UNK        -0.0830 
     12 C12       -75.5145   27.8571  -70.3057 C.ar      11 UNK        -0.1021 
     13 C13       -75.2787   29.0645  -70.9695 C.ar      11 UNK        -0.0753 
     14 C14       -76.3406   29.7201  -71.6013 C.ar      11 UNK        -0.0933 
     15 C15       -73.8852   29.6769  -70.9674 C.3       11 UNK         0.0166 
     16 S16       -72.9260   29.2287  -72.4490 S.3       11 UNK        -0.2615 
     17 C17       -71.3012   29.9324  -71.9989 C.3       11 UNK        -0.0865 
     18 CA        -71.1071   31.3837  -72.5101 C.3       10 UNK         0.0862 
     19 C         -69.8246   32.0112  -71.8978 C.2       10 UNK         0.5551 
     20 N         -69.9449   32.6824  -70.7609 N.am      10 UNK        -0.7319 
     21 O         -68.7218   31.8560  -72.4195 O.2       10 UNK        -0.5018 
     22 N         -71.1040   31.4390  -73.9781 N.am      10 UNK        -0.4509 
     23 C         -71.1924   32.5583  -74.7088 C.2       10 UNK         0.4899 
     24 O         -71.3613   33.6790  -74.2269 O.2       10 UNK        -0.4839 
     25 CA        -71.0702   32.4161  -76.2398 C.3       9 UNK         0.0222 
     26 CB        -69.6854   32.8917  -76.7102 C.3       9 UNK        -0.1966 
     27 N         -71.3012   31.0531  -76.7329 N.am      9 UNK        -0.4218 
     28 C         -72.4892   30.4331  -76.7414 C.2       9 UNK         0.5020 
     29 O         -73.5362   30.9646  -76.3671 O.2       9 UNK        -0.5274 
     30 CA        -72.5265   28.9732  -77.2190 C.3       8 UNK         0.0270 
     31 CB        -71.1484   28.3634  -77.5552 C.3       8 UNK        -0.1976 
     32 N         -73.1654   28.1843  -76.1705 N.am      8 UNK        -0.4313 
     33 C         -74.1191   27.2691  -76.3565 C.2       8 UNK         0.5041 
     34 O         -74.5560   26.9308  -77.4601 O.2       8 UNK        -0.5577 
     35 CA        -74.7143   26.6785  -75.0682 C.3       7 UNK         0.0284 
     36 CB        -75.7056   27.6722  -74.4462 C.3       7 UNK        -0.1958 
     37 N         -75.4087   25.4125  -75.2924 N.am      7 UNK        -0.4454 
     38 C         -74.8320   24.2506  -75.6287 C.2       7 UNK         0.5089 
     39 O         -73.6166   24.0910  -75.7560 O.2       7 UNK        -0.5125 
     40 CA        -75.8043   23.0715  -75.8267 C.3       6 UNK         0.0408 
     41 CB        -75.1058   21.6980  -75.9190 C.3       6 UNK        -0.1791 
     42 N         -76.8662   23.0897  -74.8118 N.am      6 UNK        -0.4762 
     43 C         -76.7267   22.8943  -73.4894 C.2       6 UNK         0.5007 
     44 O         -75.6975   22.4696  -72.9641 O.2       6 UNK        -0.5032 
     45 CA        -77.9370   23.2582  -72.6004 C.3       5 UNK         0.0783 
     46 C46       -77.7320   24.6250  -71.8933 C.3       11 UNK        -0.0857 
     47 S47       -76.5595   24.5591  -70.4965 S.3       11 UNK        -0.2512 
     48 C48       -77.0580   26.0099  -69.5131 C.3       11 UNK         0.0225 
     49 N         -79.1839   23.2715  -73.3720 N.am      5 UNK        -0.4615 
     50 C         -79.9209   22.1950  -73.6649 C.2       4 UNK         0.5053 
     51 O         -79.6382   21.0526  -73.3047 O.2       4 UNK        -0.5105 
     52 CA        -81.1893   22.4391  -74.4917 C.3       4 UNK         0.0263 
     53 CB        -82.1586   23.3889  -73.7640 C.3       4 UNK        -0.1981 
     54 N         -80.8789   22.9747  -75.8232 N.am      4 UNK        -0.4224 
     55 C         -81.3029   22.4239  -76.9723 C.2       3 UNK         0.4895 
     56 O         -81.9306   21.3650  -77.0241 O.2       3 UNK        -0.5091 
     57 CA        -81.0270   23.1648  -78.2960 C.3       3 UNK         0.0250 
     58 CB        -82.3498   23.5792  -78.9645 C.3       3 UNK        -0.1996 
     59 N         -80.1939   24.3581  -78.1385 N.am      3 UNK        -0.4254 
     60 C         -78.8624   24.3848  -78.2897 C.2       2 UNK         0.5004 
     61 O         -78.1915   23.4019  -78.6022 O.2       2 UNK        -0.5226 
     62 CA        -78.1474   25.7268  -78.0305 C.3       2 UNK         0.0269 
     63 CB        -77.8774   26.4553  -79.3561 C.3       2 UNK        -0.1926 
     64 N         -78.8713   26.6278  -77.1258 N.am      2 UNK        -0.4687 
     65 C         -79.1938   26.3387  -75.8592 C.2       1 UNK         0.5165 
     66 O         -78.8717   25.2849  -75.3043 O.2       1 UNK        -0.5079 
     67 H67       -84.3908   26.8765  -76.1916 H         1 UNK         0.0900 
     68 H68       -83.8736   26.2256  -74.6343 H         1 UNK         0.0900 
     69 H69       -83.8817   25.1910  -76.0639 H         1 UNK         0.0900 
     70 H70       -81.8507   26.9614  -74.0924 H         1 UNK         0.2959 
     71 H71       -80.0089   28.3175  -75.6263 H         1 UNK         0.1079 
     72 H72       -78.3997   27.7441  -73.7367 H         1 UNK         0.0837 
     73 H73       -79.5896   26.6569  -73.0838 H         1 UNK         0.0837 
     74 H74       -78.3632   30.3755  -73.2147 H         1 UNK         0.0685 
     75 H75       -79.0850   30.7678  -71.6724 H         1 UNK         0.0685 
     76 H76       -78.8536   27.5809  -70.8007 H         1 UNK         0.1434 
     77 H77       -74.6966   27.3396  -69.8229 H         1 UNK         0.1329 
     78 H78       -76.1548   30.6488  -72.1238 H         1 UNK         0.1335 
     79 H79       -73.9587   30.7637  -70.9039 H         1 UNK         0.0680 
     80 H80       -73.3467   29.3543  -70.0749 H         1 UNK         0.0680 
     81 H81       -70.5213   29.2818  -72.3994 H         1 UNK         0.1032 
     82 H82       -71.1881   29.8870  -70.9138 H         1 UNK         0.1032 
     83 H83       -71.9592   31.9758  -72.1692 H         1 UNK         0.0461 
     84 H84       -70.8434   32.8090  -70.3214 H         1 UNK         0.3453 
     85 H85       -69.1215   33.0832  -70.3392 H         1 UNK         0.3453 
     86 H86       -70.9400   30.5668  -74.4547 H         1 UNK         0.2984 
     87 H87       -71.8229   33.0688  -76.6873 H         1 UNK         0.0554 
     88 H88       -69.6046   32.8714  -77.7972 H         1 UNK         0.0847 
     89 H89       -68.8847   32.2748  -76.3000 H         1 UNK         0.0847 
     90 H90       -69.4974   33.9188  -76.3939 H         1 UNK         0.0847 
     91 H91       -70.4928   30.5452  -77.0632 H         1 UNK         0.3141 
     92 H92       -73.1390   28.9623  -78.1231 H         1 UNK         0.0743 
     93 H93       -71.2554   27.3322  -77.8931 H         1 UNK         0.0784 
     94 H94       -70.6566   28.9078  -78.3625 H         1 UNK         0.0784 
     95 H95       -70.4803   28.3548  -76.6928 H         1 UNK         0.0784 
     96 H96       -72.9416   28.4564  -75.2222 H         1 UNK         0.3213 
     97 H97       -73.9020   26.4976  -74.3604 H         1 UNK         0.0855 
     98 H98       -76.5452   27.8666  -75.1135 H         1 UNK         0.0814 
     99 H99       -75.2330   28.6337  -74.2443 H         1 UNK         0.0814 
    100 H100      -76.0895   27.3025  -73.4956 H         1 UNK         0.0814 
    101 H101      -76.4153   25.4326  -75.2210 H         1 UNK         0.3105 
    102 H102      -76.2949   23.2440  -76.7836 H         1 UNK         0.0547 
    103 H103      -74.4438   21.6603  -76.7847 H         1 UNK         0.0837 
    104 H104      -74.4955   21.4862  -75.0411 H         1 UNK         0.0837 
    105 H105      -75.8300   20.8912  -76.0295 H         1 UNK         0.0837 
    106 H106      -77.7554   23.4624  -75.1213 H         1 UNK         0.3020 
    107 H107      -78.0184   22.4825  -71.8350 H         1 UNK         0.1245 
    108 H108      -78.6861   24.9708  -71.4923 H         1 UNK         0.0781 
    109 H109      -77.4053   25.3917  -72.5981 H         1 UNK         0.0781 
    110 H110      -76.4986   26.0078  -68.5765 H         1 UNK         0.0836 
    111 H111      -78.1093   25.9179  -69.2358 H         1 UNK         0.0836 
    112 H112      -79.4362   24.1640  -73.7788 H         1 UNK         0.3022 
    113 H113      -81.6887   21.4715  -74.5759 H         1 UNK         0.0747 
    114 H114      -83.1092   23.4575  -74.2926 H         1 UNK         0.0793 
    115 H115      -82.3763   23.0289  -72.7575 H         1 UNK         0.0793 
    116 H116      -81.7551   24.3969  -73.6697 H         1 UNK         0.0793 
    117 H117      -80.3139   23.8135  -75.8641 H         1 UNK         0.3047 
    118 H118      -80.5276   22.4551  -78.9593 H         1 UNK         0.0822 
    119 H119      -82.1732   24.0685  -79.9225 H         1 UNK         0.0807 
    120 H120      -82.9219   24.2652  -78.3392 H         1 UNK         0.0807 
    121 H121      -82.9819   22.7115  -79.1587 H         1 UNK         0.0807 
    122 H122      -80.6768   25.2176  -77.8865 H         1 UNK         0.2946 
    123 H123      -77.1838   25.4964  -77.5725 H         1 UNK         0.1144 
    124 H124      -77.2774   27.3520  -79.1987 H         1 UNK         0.0793 
    125 H125      -78.8032   26.7490  -79.8524 H         1 UNK         0.0793 
    126 H126      -77.3238   25.8172  -80.0466 H         1 UNK         0.0793 
    127 H127      -79.2160   27.4872  -77.5303 H         1 UNK         0.2896 
@<TRIPOS>BOND
     1    1    2 1    
     2    1   67 1    
     3    1   68 1    
     4    1   69 1    
     5    2    3 2    
     6    2    4 am   BACKBONE|DICT|INTERRES
     7    4    5 1    
     8    4   70 1    
     9    5    6 1    
    10    5   65 1    
    11    5   71 1    
    12    6    7 1    
    13    6   72 1    
    14    6   73 1    
    15    7    8 1    
    16    8    9 1    
    17    8   74 1    
    18    8   75 1    
    19    9   10 ar   
    20    9   14 ar   
    21   10   11 ar   
    22   10   76 1    
    23   11   12 ar   
    24   11   48 1    
    25   12   13 ar   
    26   12   77 1    
    27   13   14 ar   
    28   13   15 1    
    29   14   78 1    
    30   15   16 1    
    31   15   79 1    
    32   15   80 1    
    33   16   17 1    
    34   17   18 1    
    35   17   81 1    
    36   17   82 1    
    37   18   19 1    
    38   18   22 1    
    39   18   83 1    
    40   19   20 am   BACKBONE|DICT|INTERRES
    41   19   21 2    
    42   20   84 1    
    43   20   85 1    
    44   22   23 am   BACKBONE|DICT|INTERRES
    45   22   86 1    
    46   23   24 2    
    47   23   25 1    
    48   25   26 1    
    49   25   27 1    
    50   25   87 1    
    51   26   88 1    
    52   26   89 1    
    53   26   90 1    
    54   27   28 am   BACKBONE|DICT|INTERRES
    55   27   91 1    
    56   28   29 2    
    57   28   30 1    
    58   30   31 1    
    59   30   32 1    
    60   30   92 1    
    61   31   93 1    
    62   31   94 1    
    63   31   95 1    
    64   32   33 am   BACKBONE|DICT|INTERRES
    65   32   96 1    
    66   33   34 2    
    67   33   35 1    
    68   35   36 1    
    69   35   37 1    
    70   35   97 1    
    71   36   98 1    
    72   36   99 1    
    73   36  100 1    
    74   37   38 am   BACKBONE|DICT|INTERRES
    75   37  101 1    
    76   38   39 2    
    77   38   40 1    
    78   40   41 1    
    79   40   42 1    
    80   40  102 1    
    81   41  103 1    
    82   41  104 1    
    83   41  105 1    
    84   42   43 am   BACKBONE|DICT|INTERRES
    85   42  106 1    
    86   43   44 2    
    87   43   45 1    
    88   45   46 1    
    89   45   49 1    
    90   45  107 1    
    91   46   47 1    
    92   46  108 1    
    93   46  109 1    
    94   47   48 1    
    95   48  110 1    
    96   48  111 1    
    97   49   50 am   BACKBONE|DICT|INTERRES
    98   49  112 1    
    99   50   51 2    
   100   50   52 1    
   101   52   53 1    
   102   52   54 1    
   103   52  113 1    
   104   53  114 1    
   105   53  115 1    
   106   53  116 1    
   107   54   55 am   BACKBONE|DICT|INTERRES
   108   54  117 1    
   109   55   56 2    
   110   55   57 1    
   111   57   58 1    
   112   57   59 1    
   113   57  118 1    
   114   58  119 1    
   115   58  120 1    
   116   58  121 1    
   117   59   60 am   BACKBONE|DICT|INTERRES
   118   59  122 1    
   119   60   61 2    
   120   60   62 1    
   121   62   63 1    
   122   62   64 1    
   123   62  123 1    
   124   63  124 1    
   125   63  125 1    
   126   63  126 1    
   127   64   65 am   BACKBONE|DICT|INTERRES
   128   64  127 1    
   129   65   66 2    
@<TRIPOS>SUBSTRUCTURE
     1 UNK         1 GROUP             0       ****    0 ROOT    
