@<TRIPOS>MOLECULE
3R135
127   129    1
SMALL
USER_CHARGES


@<TRIPOS>ATOM
      1 CA        -78.0548   21.1789  -70.6438 C.3       0 UNK        -0.1998 
      2 C         -76.9535   22.0492  -71.2462 C.2       0 UNK         0.4909 
      3 O         -75.8300   21.5735  -71.3983 O.2       0 UNK        -0.5240 
      4 N         -77.2050   23.3215  -71.5888 N.am      1 UNK        -0.4739 
      5 CA        -78.4965   24.0171  -71.5623 C.3       1 UNK         0.0864 
      6 C6        -78.2957   25.5382  -71.7705 C.3       11 UNK        -0.0881 
      7 S7        -79.7875   26.5104  -71.3729 S.3       11 UNK        -0.2682 
      8 C8        -79.9600   27.5251  -72.8819 C.3       11 UNK         0.0289 
      9 C9        -79.0347   28.7390  -72.9975 C.ar      11 UNK        -0.0687 
     10 C10       -79.1296   29.5243  -74.1509 C.ar      11 UNK        -0.0823 
     11 C11       -78.3401   30.6669  -74.3096 C.ar      11 UNK        -0.0830 
     12 C12       -77.4493   31.0331  -73.2976 C.ar      11 UNK        -0.1021 
     13 C13       -77.3406   30.2628  -72.1375 C.ar      11 UNK        -0.0753 
     14 C14       -78.1280   29.1160  -71.9962 C.ar      11 UNK        -0.0933 
     15 C15       -76.4017   30.6838  -71.0167 C.3       11 UNK         0.0166 
     16 S16       -74.6960   30.1367  -71.3249 S.3       11 UNK        -0.2615 
     17 C17       -73.9369   31.6714  -71.9674 C.3       11 UNK        -0.0865 
     18 CA        -72.5169   31.4643  -72.5546 C.3       10 UNK         0.0862 
     19 C         -71.4769   31.0924  -71.4536 C.2       10 UNK         0.5551 
     20 N         -70.9330   29.8801  -71.4304 N.am      10 UNK        -0.7319 
     21 O         -71.1525   31.9280  -70.6132 O.2       10 UNK        -0.5018 
     22 N         -72.5499   30.5556  -73.7075 N.am      10 UNK        -0.4509 
     23 C         -71.5595   30.3971  -74.5941 C.2       10 UNK         0.4899 
     24 O         -70.5644   31.1224  -74.6380 O.2       10 UNK        -0.4839 
     25 CA        -71.6997   29.2342  -75.5982 C.3       9 UNK         0.0222 
     26 CB        -70.3365   28.6177  -75.9745 C.3       9 UNK        -0.1966 
     27 N         -72.6349   28.1794  -75.1835 N.am      9 UNK        -0.4218 
     28 C         -72.5863   27.4196  -74.0772 C.2       9 UNK         0.5020 
     29 O         -71.7487   27.5527  -73.1831 O.2       9 UNK        -0.5274 
     30 CA        -73.6635   26.3291  -73.9475 C.3       8 UNK         0.0270 
     31 CB        -74.9838   26.9210  -73.4291 C.3       8 UNK        -0.1976 
     32 N         -73.9101   25.6234  -75.2069 N.am      8 UNK        -0.4313 
     33 C         -73.0212   24.8342  -75.8285 C.2       8 UNK         0.5041 
     34 O         -71.9028   24.5709  -75.3850 O.2       8 UNK        -0.5577 
     35 CA        -73.4503   24.2435  -77.1791 C.3       7 UNK         0.0284 
     36 CB        -74.3271   22.9974  -76.9743 C.3       7 UNK        -0.1958 
     37 N         -74.1656   25.2333  -77.9869 N.am      7 UNK        -0.4454 
     38 C         -73.5614   26.1604  -78.7440 C.2       7 UNK         0.5089 
     39 O         -72.3418   26.2300  -78.8982 O.2       7 UNK        -0.5125 
     40 CA        -74.4621   27.1890  -79.4542 C.3       6 UNK         0.0408 
     41 CB        -74.7902   26.7177  -80.8796 C.3       6 UNK        -0.1791 
     42 N         -75.7100   27.4791  -78.7420 N.am      6 UNK        -0.4762 
     43 C         -75.7842   28.0952  -77.5526 C.2       6 UNK         0.5007 
     44 O         -74.8002   28.4781  -76.9217 O.2       6 UNK        -0.5032 
     45 CA        -77.1913   28.2453  -76.9351 C.3       5 UNK         0.0783 
     46 C46       -77.9191   29.5034  -77.4713 C.3       11 UNK        -0.0857 
     47 S47       -77.2332   31.0641  -76.8183 S.3       11 UNK        -0.2512 
     48 C48       -78.4652   31.5242  -75.5601 C.3       11 UNK         0.0225 
     49 N         -78.0185   27.0441  -77.1100 N.am      5 UNK        -0.4615 
     50 C         -77.6873   25.7999  -76.7427 C.2       4 UNK         0.5053 
     51 O         -76.6230   25.5111  -76.1921 O.2       4 UNK        -0.5105 
     52 CA        -78.7219   24.7087  -77.0617 C.3       4 UNK         0.0263 
     53 CB        -78.1382   23.2883  -76.9587 C.3       4 UNK        -0.1981 
     54 N         -79.8846   24.8256  -76.1806 N.am      4 UNK        -0.4224 
     55 C         -80.9085   25.6702  -76.3810 C.2       3 UNK         0.4895 
     56 O         -80.9450   26.4547  -77.3311 O.2       3 UNK        -0.5091 
     57 CA        -82.0648   25.6985  -75.3574 C.3       3 UNK         0.0250 
     58 CB        -83.4436   25.6333  -76.0482 C.3       3 UNK        -0.1996 
     59 N         -81.9601   24.7109  -74.2730 N.am      3 UNK        -0.4254 
     60 C         -82.0616   23.3750  -74.3567 C.2       2 UNK         0.5004 
     61 O         -82.3134   22.7650  -75.3967 O.2       2 UNK        -0.5226 
     62 CA        -81.7897   22.5989  -73.0498 C.3       2 UNK         0.0269 
     63 CB        -81.5088   21.1005  -73.2957 C.3       2 UNK        -0.1926 
     64 N         -80.7168   23.1891  -72.2301 N.am      2 UNK        -0.4687 
     65 C         -79.4531   23.4247  -72.6178 C.2       1 UNK         0.5165 
     66 O         -79.0372   23.2178  -73.7579 O.2       1 UNK        -0.5079 
     67 H67       -77.6218   20.2987  -70.1687 H         1 UNK         0.0900 
     68 H68       -78.6219   21.7102  -69.8811 H         1 UNK         0.0900 
     69 H69       -78.7383   20.8324  -71.4182 H         1 UNK         0.0900 
     70 H70       -76.4506   23.8479  -72.0040 H         1 UNK         0.2959 
     71 H71       -78.9291   23.8732  -70.5705 H         1 UNK         0.1079 
     72 H72       -77.4963   25.9013  -71.1222 H         1 UNK         0.0837 
     73 H73       -77.9704   25.7477  -72.7912 H         1 UNK         0.0837 
     74 H74       -79.8156   26.8871  -73.7541 H         1 UNK         0.0685 
     75 H75       -80.9903   27.8811  -72.9225 H         1 UNK         0.0685 
     76 H76       -79.8310   29.2487  -74.9266 H         1 UNK         0.1434 
     77 H77       -76.8473   31.9237  -73.4111 H         1 UNK         0.1329 
     78 H78       -78.0369   28.5362  -71.0896 H         1 UNK         0.1335 
     79 H79       -76.7350   30.2558  -70.0700 H         1 UNK         0.0680 
     80 H80       -76.4356   31.7661  -70.8833 H         1 UNK         0.0680 
     81 H81       -74.5857   32.0901  -72.7373 H         1 UNK         0.1032 
     82 H82       -73.9126   32.4135  -71.1670 H         1 UNK         0.1032 
     83 H83       -72.1953   32.4341  -72.9393 H         1 UNK         0.0461 
     84 H84       -71.2153   29.1728  -72.1013 H         1 UNK         0.3453 
     85 H85       -70.2594   29.6543  -70.7166 H         1 UNK         0.3453 
     86 H86       -73.3219   29.9060  -73.7298 H         1 UNK         0.2984 
     87 H87       -72.1263   29.6695  -76.5029 H         1 UNK         0.0554 
     88 H88       -69.6754   29.3620  -76.4198 H         1 UNK         0.0847 
     89 H89       -70.4538   27.8146  -76.7027 H         1 UNK         0.0847 
     90 H90       -69.8256   28.2075  -75.1027 H         1 UNK         0.0847 
     91 H91       -73.4220   28.0483  -75.8184 H         1 UNK         0.3141 
     92 H92       -73.3097   25.5953  -73.2204 H         1 UNK         0.0743 
     93 H93       -74.8519   27.3596  -72.4398 H         1 UNK         0.0784 
     94 H94       -75.3697   27.7020  -74.0855 H         1 UNK         0.0784 
     95 H95       -75.7488   26.1514  -73.3421 H         1 UNK         0.0784 
     96 H96       -74.8366   25.7223  -75.6161 H         1 UNK         0.3213 
     97 H97       -72.5493   23.9333  -77.7135 H         1 UNK         0.0855 
     98 H98       -75.2132   23.2162  -76.3787 H         1 UNK         0.0814 
     99 H99       -73.7725   22.2181  -76.4500 H         1 UNK         0.0814 
    100 H100      -74.6535   22.5780  -77.9260 H         1 UNK         0.0814 
    101 H101      -75.1682   25.2828  -77.8660 H         1 UNK         0.3105 
    102 H102      -73.8975   28.1211  -79.5267 H         1 UNK         0.0547 
    103 H103      -75.3510   27.4735  -81.4296 H         1 UNK         0.0837 
    104 H104      -73.8777   26.5209  -81.4445 H         1 UNK         0.0837 
    105 H105      -75.3758   25.7976  -80.8777 H         1 UNK         0.0837 
    106 H106      -76.5689   27.1848  -79.1846 H         1 UNK         0.3020 
    107 H107      -77.0502   28.3618  -75.8582 H         1 UNK         0.1245 
    108 H108      -78.9794   29.4613  -77.2187 H         1 UNK         0.0781 
    109 H109      -77.8859   29.5388  -78.5620 H         1 UNK         0.0781 
    110 H110      -79.4707   31.4574  -75.9784 H         1 UNK         0.0836 
    111 H111      -78.3205   32.5737  -75.2988 H         1 UNK         0.0836 
    112 H112      -78.9381   27.1779  -77.5151 H         1 UNK         0.3022 
    113 H113      -79.0437   24.8481  -78.0962 H         1 UNK         0.0747 
    114 H114      -78.8981   22.5317  -77.1543 H         1 UNK         0.0793 
    115 H115      -77.3423   23.1439  -77.6898 H         1 UNK         0.0793 
    116 H116      -77.7153   23.0888  -75.9740 H         1 UNK         0.0793 
    117 H117      -79.8757   24.2345  -75.3558 H         1 UNK         0.3047 
    118 H118      -82.0031   26.6741  -74.8750 H         1 UNK         0.0822 
    119 H119      -83.5643   24.7223  -76.6347 H         1 UNK         0.0807 
    120 H120      -83.5788   26.4734  -76.7306 H         1 UNK         0.0807 
    121 H121      -84.2551   25.6759  -75.3218 H         1 UNK         0.0807 
    122 H122      -81.7396   25.0913  -73.3628 H         1 UNK         0.2946 
    123 H123      -82.7084   22.6698  -72.4648 H         1 UNK         0.1144 
    124 H124      -81.3489   20.5675  -72.3586 H         1 UNK         0.0793 
    125 H125      -80.6280   20.9513  -73.9214 H         1 UNK         0.0793 
    126 H126      -82.3495   20.6208  -73.7987 H         1 UNK         0.0793 
    127 H127      -80.9804   23.4301  -71.2837 H         1 UNK         0.2896 
@<TRIPOS>BOND
     1    1    2 1    
     2    1   67 1    
     3    1   68 1    
     4    1   69 1    
     5    2    3 2    
     6    2    4 am   BACKBONE|DICT|INTERRES
     7    4    5 1    
     8    4   70 1    
     9    5    6 1    
    10    5   65 1    
    11    5   71 1    
    12    6    7 1    
    13    6   72 1    
    14    6   73 1    
    15    7    8 1    
    16    8    9 1    
    17    8   74 1    
    18    8   75 1    
    19    9   10 ar   
    20    9   14 ar   
    21   10   11 ar   
    22   10   76 1    
    23   11   12 ar   
    24   11   48 1    
    25   12   13 ar   
    26   12   77 1    
    27   13   14 ar   
    28   13   15 1    
    29   14   78 1    
    30   15   16 1    
    31   15   79 1    
    32   15   80 1    
    33   16   17 1    
    34   17   18 1    
    35   17   81 1    
    36   17   82 1    
    37   18   19 1    
    38   18   22 1    
    39   18   83 1    
    40   19   20 am   BACKBONE|DICT|INTERRES
    41   19   21 2    
    42   20   84 1    
    43   20   85 1    
    44   22   23 am   BACKBONE|DICT|INTERRES
    45   22   86 1    
    46   23   24 2    
    47   23   25 1    
    48   25   26 1    
    49   25   27 1    
    50   25   87 1    
    51   26   88 1    
    52   26   89 1    
    53   26   90 1    
    54   27   28 am   BACKBONE|DICT|INTERRES
    55   27   91 1    
    56   28   29 2    
    57   28   30 1    
    58   30   31 1    
    59   30   32 1    
    60   30   92 1    
    61   31   93 1    
    62   31   94 1    
    63   31   95 1    
    64   32   33 am   BACKBONE|DICT|INTERRES
    65   32   96 1    
    66   33   34 2    
    67   33   35 1    
    68   35   36 1    
    69   35   37 1    
    70   35   97 1    
    71   36   98 1    
    72   36   99 1    
    73   36  100 1    
    74   37   38 am   BACKBONE|DICT|INTERRES
    75   37  101 1    
    76   38   39 2    
    77   38   40 1    
    78   40   41 1    
    79   40   42 1    
    80   40  102 1    
    81   41  103 1    
    82   41  104 1    
    83   41  105 1    
    84   42   43 am   BACKBONE|DICT|INTERRES
    85   42  106 1    
    86   43   44 2    
    87   43   45 1    
    88   45   46 1    
    89   45   49 1    
    90   45  107 1    
    91   46   47 1    
    92   46  108 1    
    93   46  109 1    
    94   47   48 1    
    95   48  110 1    
    96   48  111 1    
    97   49   50 am   BACKBONE|DICT|INTERRES
    98   49  112 1    
    99   50   51 2    
   100   50   52 1    
   101   52   53 1    
   102   52   54 1    
   103   52  113 1    
   104   53  114 1    
   105   53  115 1    
   106   53  116 1    
   107   54   55 am   BACKBONE|DICT|INTERRES
   108   54  117 1    
   109   55   56 2    
   110   55   57 1    
   111   57   58 1    
   112   57   59 1    
   113   57  118 1    
   114   58  119 1    
   115   58  120 1    
   116   58  121 1    
   117   59   60 am   BACKBONE|DICT|INTERRES
   118   59  122 1    
   119   60   61 2    
   120   60   62 1    
   121   62   63 1    
   122   62   64 1    
   123   62  123 1    
   124   63  124 1    
   125   63  125 1    
   126   63  126 1    
   127   64   65 am   BACKBONE|DICT|INTERRES
   128   64  127 1    
   129   65   66 2    
@<TRIPOS>SUBSTRUCTURE
     1 UNK         1 GROUP             0       ****    0 ROOT    
