@<TRIPOS>MOLECULE
3R135
127   129    1
SMALL
USER_CHARGES


@<TRIPOS>ATOM
      1 CA        -74.2167   26.2103  -68.9975 C.3       0 UNK        -0.1998 
      2 C         -75.7332   26.3112  -68.9300 C.2       0 UNK         0.4909 
      3 O         -76.3431   25.7608  -68.0128 O.2       0 UNK        -0.5240 
      4 N         -76.3464   27.0087  -69.8949 N.am      1 UNK        -0.4739 
      5 CA        -77.8019   27.1732  -70.0169 C.3       1 UNK         0.0864 
      6 C6        -78.1497   28.3688  -70.9391 C.3       11 UNK        -0.0881 
      7 S7        -79.7204   29.1812  -70.4883 S.3       11 UNK        -0.2682 
      8 C8        -80.8238   28.6629  -71.8517 C.3       11 UNK         0.0289 
      9 C9        -80.4487   29.1695  -73.2471 C.ar      11 UNK        -0.0687 
     10 C10       -81.0078   28.5319  -74.3593 C.ar      11 UNK        -0.0823 
     11 C11       -80.6895   28.9436  -75.6567 C.ar      11 UNK        -0.0830 
     12 C12       -79.7931   29.9983  -75.8446 C.ar      11 UNK        -0.1021 
     13 C13       -79.2157   30.6378  -74.7469 C.ar      11 UNK        -0.0753 
     14 C14       -79.5711   30.2423  -73.4541 C.ar      11 UNK        -0.0933 
     15 C15       -78.1792   31.7314  -74.9604 C.3       11 UNK         0.0166 
     16 S16       -76.5465   31.0229  -75.3583 S.3       11 UNK        -0.2615 
     17 C17       -76.1923   30.0628  -73.8456 C.3       11 UNK        -0.0865 
     18 CA        -74.7249   30.1860  -73.3742 C.3       10 UNK         0.0862 
     19 C         -74.5440   29.5013  -71.9947 C.2       10 UNK         0.5551 
     20 N         -74.2243   30.2581  -70.9548 N.am      10 UNK        -0.7319 
     21 O         -74.7530   28.2984  -71.8544 O.2       10 UNK        -0.5018 
     22 N         -73.7918   29.6266  -74.3574 N.am      10 UNK        -0.4509 
     23 C         -72.4717   29.8571  -74.3561 C.2       10 UNK         0.4899 
     24 O         -71.9188   30.6601  -73.6021 O.2       10 UNK        -0.4839 
     25 CA        -71.6347   29.0555  -75.3711 C.3       9 UNK         0.0222 
     26 CB        -70.1172   29.1141  -75.0937 C.3       9 UNK        -0.1966 
     27 N         -72.0965   27.6695  -75.5023 N.am      9 UNK        -0.4218 
     28 C         -72.1425   26.7255  -74.5460 C.2       9 UNK         0.5020 
     29 O         -71.6814   26.8750  -73.4139 O.2       9 UNK        -0.5274 
     30 CA        -72.8333   25.3913  -74.8931 C.3       8 UNK         0.0270 
     31 CB        -74.0382   25.1504  -73.9639 C.3       8 UNK        -0.1976 
     32 N         -73.2732   25.3406  -76.2925 N.am      8 UNK        -0.4313 
     33 C         -72.5145   24.8979  -77.3078 C.2       8 UNK         0.5041 
     34 O         -71.4348   24.3275  -77.1497 O.2       8 UNK        -0.5577 
     35 CA        -72.9985   25.1796  -78.7444 C.3       7 UNK         0.0284 
     36 CB        -73.5226   23.9091  -79.4323 C.3       7 UNK        -0.1958 
     37 N         -74.0036   26.2458  -78.8199 N.am      7 UNK        -0.4454 
     38 C         -73.7121   27.5483  -78.6774 C.2       7 UNK         0.5089 
     39 O         -72.5693   27.9678  -78.5010 O.2       7 UNK        -0.5125 
     40 CA        -74.8780   28.5527  -78.6639 C.3       6 UNK         0.0408 
     41 CB        -75.0931   29.1450  -80.0647 C.3       6 UNK        -0.1791 
     42 N         -76.1378   27.9900  -78.1753 N.am      6 UNK        -0.4762 
     43 C         -76.3366   27.4947  -76.9450 C.2       6 UNK         0.5007 
     44 O         -75.4569   27.4679  -76.0808 O.2       6 UNK        -0.5032 
     45 CA        -77.7220   26.8830  -76.6408 C.3       5 UNK         0.0783 
     46 C46       -78.8040   27.2157  -77.7114 C.3       11 UNK        -0.0857 
     47 S47       -80.4695   26.6621  -77.2094 S.3       11 UNK        -0.2512 
     48 C48       -81.3054   28.2389  -76.8550 C.3       11 UNK         0.0225 
     49 N         -77.6102   25.4392  -76.3966 N.am      5 UNK        -0.4615 
     50 C         -77.1557   24.5161  -77.2611 C.2       4 UNK         0.5053 
     51 O         -76.6345   24.7955  -78.3418 O.2       4 UNK        -0.5105 
     52 CA        -77.3210   23.0284  -76.8835 C.3       4 UNK         0.0263 
     53 CB        -75.9962   22.4302  -76.3856 C.3       4 UNK        -0.1981 
     54 N         -78.3440   22.8031  -75.8630 N.am      4 UNK        -0.4224 
     55 C         -79.6643   22.9586  -76.0328 C.2       3 UNK         0.4895 
     56 O         -80.1954   23.1126  -77.1326 O.2       3 UNK        -0.5091 
     57 CA        -80.5426   22.9584  -74.7625 C.3       3 UNK         0.0250 
     58 CB        -81.4751   21.7352  -74.7483 C.3       3 UNK        -0.1996 
     59 N         -79.7961   23.0022  -73.4954 N.am      3 UNK        -0.4254 
     60 C         -79.0113   24.0083  -73.0829 C.2       2 UNK         0.5004 
     61 O         -78.8119   25.0353  -73.7368 O.2       2 UNK        -0.5226 
     62 CA        -78.2463   23.7670  -71.7723 C.3       2 UNK         0.0269 
     63 CB        -77.0394   22.8454  -72.0200 C.3       2 UNK        -0.1926 
     64 N         -77.7586   25.0197  -71.2000 N.am      2 UNK        -0.4687 
     65 C         -78.4994   25.8756  -70.4841 C.2       1 UNK         0.5165 
     66 O         -79.6729   25.6630  -70.1742 O.2       1 UNK        -0.5079 
     67 H67       -73.8148   26.6836  -69.8932 H         1 UNK         0.0900 
     68 H68       -73.9103   25.1646  -69.0034 H         1 UNK         0.0900 
     69 H69       -73.7694   26.6922  -68.1287 H         1 UNK         0.0900 
     70 H70       -75.7840   27.4446  -70.6251 H         1 UNK         0.2959 
     71 H71       -78.1789   27.3897  -69.0145 H         1 UNK         0.1079 
     72 H72       -77.3852   29.1412  -70.8458 H         1 UNK         0.0837 
     73 H73       -78.1439   28.0795  -71.9923 H         1 UNK         0.0837 
     74 H74       -80.8651   27.5725  -71.8607 H         1 UNK         0.0685 
     75 H75       -81.8328   29.0075  -71.6226 H         1 UNK         0.0685 
     76 H76       -81.6886   27.7034  -74.2170 H         1 UNK         0.1434 
     77 H77       -79.5256   30.3120  -76.8443 H         1 UNK         0.1329 
     78 H78       -79.1356   30.7598  -72.6121 H         1 UNK         0.1335 
     79 H79       -78.4935   32.3818  -75.7780 H         1 UNK         0.0680 
     80 H80       -78.0960   32.3670  -74.0773 H         1 UNK         0.0680 
     81 H81       -76.4622   29.0194  -74.0201 H         1 UNK         0.1032 
     82 H82       -76.8476   30.4161  -73.0495 H         1 UNK         0.1032 
     83 H83       -74.5016   31.2498  -73.2668 H         1 UNK         0.0461 
     84 H84       -74.1170   29.8324  -70.0485 H         1 UNK         0.3453 
     85 H85       -74.0508   31.2449  -71.0665 H         1 UNK         0.3453 
     86 H86       -74.1765   28.9308  -74.9846 H         1 UNK         0.2984 
     87 H87       -71.8074   29.5258  -76.3400 H         1 UNK         0.0554 
     88 H88       -69.5563   28.5450  -75.8349 H         1 UNK         0.0847 
     89 H89       -69.8681   28.7199  -74.1081 H         1 UNK         0.0847 
     90 H90       -69.7531   30.1415  -75.1323 H         1 UNK         0.0847 
     91 H91       -72.4641   27.4363  -76.4161 H         1 UNK         0.3141 
     92 H92       -72.1059   24.5986  -74.7063 H         1 UNK         0.0743 
     93 H93       -74.8355   25.8760  -74.1242 H         1 UNK         0.0784 
     94 H94       -74.4498   24.1542  -74.1059 H         1 UNK         0.0784 
     95 H95       -73.7469   25.2232  -72.9150 H         1 UNK         0.0784 
     96 H96       -74.1394   25.8251  -76.4997 H         1 UNK         0.3213 
     97 H97       -72.1198   25.5068  -79.3053 H         1 UNK         0.0855 
     98 H98       -74.4467   23.5501  -78.9858 H         1 UNK         0.0814 
     99 H99       -72.7934   23.1001  -79.3692 H         1 UNK         0.0814 
    100 H100      -73.7151   24.0870  -80.4903 H         1 UNK         0.0814 
    101 H101      -74.9739   25.9581  -78.9065 H         1 UNK         0.3105 
    102 H102      -74.6003   29.3657  -77.9893 H         1 UNK         0.0547 
    103 H103      -74.1743   29.5962  -80.4423 H         1 UNK         0.0837 
    104 H104      -75.4011   28.3844  -80.7832 H         1 UNK         0.0837 
    105 H105      -75.8530   29.9265  -80.0536 H         1 UNK         0.0837 
    106 H106      -76.8948   27.9406  -78.8413 H         1 UNK         0.3020 
    107 H107      -78.0385   27.3311  -75.6966 H         1 UNK         0.1245 
    108 H108      -78.8362   28.2861  -77.9169 H         1 UNK         0.0781 
    109 H109      -78.5738   26.7326  -78.6626 H         1 UNK         0.0781 
    110 H110      -81.2751   28.8762  -77.7401 H         1 UNK         0.0836 
    111 H111      -82.3607   28.0426  -76.6595 H         1 UNK         0.0836 
    112 H112      -78.0071   25.1333  -75.5126 H         1 UNK         0.3022 
    113 H113      -77.6188   22.4977  -77.7902 H         1 UNK         0.0747 
    114 H114      -76.0769   21.3510  -76.2538 H         1 UNK         0.0793 
    115 H115      -75.1849   22.6056  -77.0901 H         1 UNK         0.0793 
    116 H116      -75.6966   22.8589  -75.4315 H         1 UNK         0.0793 
    117 H117      -78.0134   22.6528  -74.9224 H         1 UNK         0.3047 
    118 H118      -81.1587   23.8591  -74.8107 H         1 UNK         0.0822 
    119 H119      -82.1660   21.7710  -73.9058 H         1 UNK         0.0807 
    120 H120      -80.9148   20.8014  -74.6863 H         1 UNK         0.0807 
    121 H121      -82.0793   21.6923  -75.6558 H         1 UNK         0.0807 
    122 H122      -79.8822   22.1863  -72.9055 H         1 UNK         0.2946 
    123 H123      -78.9202   23.2892  -71.0569 H         1 UNK         0.1144 
    124 H124      -77.3532   21.8716  -72.3982 H         1 UNK         0.0793 
    125 H125      -76.4847   22.6652  -71.0988 H         1 UNK         0.0793 
    126 H126      -76.3475   23.2716  -72.7472 H         1 UNK         0.0793 
    127 H127      -76.8142   25.2904  -71.4305 H         1 UNK         0.2896 
@<TRIPOS>BOND
     1    1    2 1    
     2    1   67 1    
     3    1   68 1    
     4    1   69 1    
     5    2    3 2    
     6    2    4 am   BACKBONE|DICT|INTERRES
     7    4    5 1    
     8    4   70 1    
     9    5    6 1    
    10    5   65 1    
    11    5   71 1    
    12    6    7 1    
    13    6   72 1    
    14    6   73 1    
    15    7    8 1    
    16    8    9 1    
    17    8   74 1    
    18    8   75 1    
    19    9   10 ar   
    20    9   14 ar   
    21   10   11 ar   
    22   10   76 1    
    23   11   12 ar   
    24   11   48 1    
    25   12   13 ar   
    26   12   77 1    
    27   13   14 ar   
    28   13   15 1    
    29   14   78 1    
    30   15   16 1    
    31   15   79 1    
    32   15   80 1    
    33   16   17 1    
    34   17   18 1    
    35   17   81 1    
    36   17   82 1    
    37   18   19 1    
    38   18   22 1    
    39   18   83 1    
    40   19   20 am   BACKBONE|DICT|INTERRES
    41   19   21 2    
    42   20   84 1    
    43   20   85 1    
    44   22   23 am   BACKBONE|DICT|INTERRES
    45   22   86 1    
    46   23   24 2    
    47   23   25 1    
    48   25   26 1    
    49   25   27 1    
    50   25   87 1    
    51   26   88 1    
    52   26   89 1    
    53   26   90 1    
    54   27   28 am   BACKBONE|DICT|INTERRES
    55   27   91 1    
    56   28   29 2    
    57   28   30 1    
    58   30   31 1    
    59   30   32 1    
    60   30   92 1    
    61   31   93 1    
    62   31   94 1    
    63   31   95 1    
    64   32   33 am   BACKBONE|DICT|INTERRES
    65   32   96 1    
    66   33   34 2    
    67   33   35 1    
    68   35   36 1    
    69   35   37 1    
    70   35   97 1    
    71   36   98 1    
    72   36   99 1    
    73   36  100 1    
    74   37   38 am   BACKBONE|DICT|INTERRES
    75   37  101 1    
    76   38   39 2    
    77   38   40 1    
    78   40   41 1    
    79   40   42 1    
    80   40  102 1    
    81   41  103 1    
    82   41  104 1    
    83   41  105 1    
    84   42   43 am   BACKBONE|DICT|INTERRES
    85   42  106 1    
    86   43   44 2    
    87   43   45 1    
    88   45   46 1    
    89   45   49 1    
    90   45  107 1    
    91   46   47 1    
    92   46  108 1    
    93   46  109 1    
    94   47   48 1    
    95   48  110 1    
    96   48  111 1    
    97   49   50 am   BACKBONE|DICT|INTERRES
    98   49  112 1    
    99   50   51 2    
   100   50   52 1    
   101   52   53 1    
   102   52   54 1    
   103   52  113 1    
   104   53  114 1    
   105   53  115 1    
   106   53  116 1    
   107   54   55 am   BACKBONE|DICT|INTERRES
   108   54  117 1    
   109   55   56 2    
   110   55   57 1    
   111   57   58 1    
   112   57   59 1    
   113   57  118 1    
   114   58  119 1    
   115   58  120 1    
   116   58  121 1    
   117   59   60 am   BACKBONE|DICT|INTERRES
   118   59  122 1    
   119   60   61 2    
   120   60   62 1    
   121   62   63 1    
   122   62   64 1    
   123   62  123 1    
   124   63  124 1    
   125   63  125 1    
   126   63  126 1    
   127   64   65 am   BACKBONE|DICT|INTERRES
   128   64  127 1    
   129   65   66 2    
@<TRIPOS>SUBSTRUCTURE
     1 UNK         1 GROUP             0       ****    0 ROOT    
