@<TRIPOS>MOLECULE
3R135
127   129    1
SMALL
USER_CHARGES


@<TRIPOS>ATOM
      1 CA        -80.6093   25.0016  -70.3375 C.3       0 UNK        -0.1998 
      2 C         -81.6922   25.7563  -71.0927 C.2       0 UNK         0.4909 
      3 O         -82.8638   25.3851  -71.0150 O.2       0 UNK        -0.5240 
      4 N         -81.3112   26.8170  -71.8173 N.am      1 UNK        -0.4739 
      5 CA        -82.2285   27.6544  -72.6052 C.3       1 UNK         0.0864 
      6 C6        -81.6634   29.0738  -72.8613 C.3       11 UNK        -0.0881 
      7 S7        -81.4221   29.9869  -71.2968 S.3       11 UNK        -0.2682 
      8 C8        -80.0052   31.0742  -71.6873 C.3       11 UNK         0.0289 
      9 C9        -78.6975   30.3576  -72.0274 C.ar      11 UNK        -0.0687 
     10 C10       -78.4126   29.0637  -71.5739 C.ar      11 UNK        -0.0823 
     11 C11       -77.2298   28.4197  -71.9460 C.ar      11 UNK        -0.0830 
     12 C12       -76.2963   29.0961  -72.7354 C.ar      11 UNK        -0.1021 
     13 C13       -76.5439   30.4059  -73.1562 C.ar      11 UNK        -0.0753 
     14 C14       -77.7490   31.0238  -72.8097 C.ar      11 UNK        -0.0933 
     15 C15       -75.5193   31.1539  -73.9963 C.3       11 UNK         0.0166 
     16 S16       -74.5585   32.3360  -72.9967 S.3       11 UNK        -0.2615 
     17 C17       -73.4984   31.2249  -72.0063 C.3       11 UNK        -0.0865 
     18 CA        -71.9852   31.4586  -72.2469 C.3       10 UNK         0.0862 
     19 C         -71.1466   30.5615  -71.2950 C.2       10 UNK         0.5551 
     20 N         -70.7667   31.0753  -70.1333 N.am      10 UNK        -0.7319 
     21 O         -70.8811   29.3953  -71.5810 O.2       10 UNK        -0.5018 
     22 N         -71.6309   31.2689  -73.6602 N.am      10 UNK        -0.4509 
     23 C         -70.4391   31.5212  -74.2107 C.2       10 UNK         0.4899 
     24 O         -69.4894   32.0111  -73.5969 O.2       10 UNK        -0.4839 
     25 CA        -70.2926   31.1558  -75.7018 C.3       9 UNK         0.0222 
     26 CB        -68.9306   31.5786  -76.2847 C.3       9 UNK        -0.1966 
     27 N         -70.4862   29.7215  -75.9387 N.am      9 UNK        -0.4218 
     28 C         -71.6683   29.0935  -75.9708 C.2       9 UNK         0.5020 
     29 O         -72.7482   29.6571  -75.7751 O.2       9 UNK        -0.5274 
     30 CA        -71.6315   27.5758  -76.2174 C.3       8 UNK         0.0270 
     31 CB        -71.5334   26.8240  -74.8799 C.3       8 UNK        -0.1976 
     32 N         -72.8138   27.1059  -76.9438 N.am      8 UNK        -0.4313 
     33 C         -73.1300   27.4539  -78.2013 C.2       8 UNK         0.5041 
     34 O         -72.4129   28.1638  -78.9105 O.2       8 UNK        -0.5577 
     35 CA        -74.4657   26.9158  -78.7613 C.3       7 UNK         0.0284 
     36 CB        -74.5276   26.9463  -80.3039 C.3       7 UNK        -0.1958 
     37 N         -74.8137   25.5834  -78.2524 N.am      7 UNK        -0.4454 
     38 C         -74.0936   24.4568  -78.3649 C.2       7 UNK         0.5089 
     39 O         -73.0543   24.3684  -79.0207 O.2       7 UNK        -0.5125 
     40 CA        -74.6186   23.2212  -77.6050 C.3       6 UNK         0.0408 
     41 CB        -73.4721   22.3083  -77.1223 C.3       6 UNK        -0.1791 
     42 N         -75.5292   23.5188  -76.4882 N.am      6 UNK        -0.4762 
     43 C         -75.2730   24.2515  -75.3892 C.2       6 UNK         0.5007 
     44 O         -74.2388   24.9046  -75.2431 O.2       6 UNK        -0.5032 
     45 CA        -76.3399   24.2854  -74.2697 C.3       5 UNK         0.0783 
     46 C46       -76.8602   25.7247  -74.0372 C.3       11 UNK        -0.0857 
     47 S47       -77.9062   25.8178  -72.5448 S.3       11 UNK        -0.2512 
     48 C48       -76.9790   26.9874  -71.5027 C.3       11 UNK         0.0225 
     49 N         -77.4438   23.3482  -74.5105 N.am      5 UNK        -0.4615 
     50 C         -77.3827   22.0218  -74.3225 C.2       4 UNK         0.5053 
     51 O         -76.4053   21.4479  -73.8424 O.2       4 UNK        -0.5105 
     52 CA        -78.5974   21.1831  -74.7723 C.3       4 UNK         0.0263 
     53 CB        -79.4941   20.8580  -73.5667 C.3       4 UNK        -0.1981 
     54 N         -79.4118   21.8200  -75.8133 N.am      4 UNK        -0.4224 
     55 C         -78.9773   22.2036  -77.0231 C.2       3 UNK         0.4895 
     56 O         -77.8498   21.9546  -77.4495 O.2       3 UNK        -0.5091 
     57 CA        -79.9265   23.0592  -77.8856 C.3       3 UNK         0.0250 
     58 CB        -80.5260   22.2108  -79.0188 C.3       3 UNK        -0.1996 
     59 N         -81.0160   23.7283  -77.1589 N.am      3 UNK        -0.4254 
     60 C         -80.8837   24.5671  -76.1200 C.2       2 UNK         0.5004 
     61 O         -79.8001   24.8529  -75.6028 O.2       2 UNK        -0.5226 
     62 CA        -82.1855   25.1396  -75.5421 C.3       2 UNK         0.0269 
     63 CB        -83.1538   24.0212  -75.1007 C.3       2 UNK        -0.1926 
     64 N         -81.8795   25.9909  -74.3950 N.am      2 UNK        -0.4687 
     65 C         -82.6594   26.9709  -73.9211 C.2       1 UNK         0.5165 
     66 O         -83.7058   27.3255  -74.4668 O.2       1 UNK        -0.5079 
     67 H67       -79.7535   25.6401  -70.1208 H         1 UNK         0.0900 
     68 H68       -80.2655   24.1498  -70.9239 H         1 UNK         0.0900 
     69 H69       -80.9960   24.6302  -69.3888 H         1 UNK         0.0900 
     70 H70       -80.3329   27.0613  -71.8706 H         1 UNK         0.2959 
     71 H71       -83.1465   27.7743  -72.0246 H         1 UNK         0.1079 
     72 H72       -82.3483   29.6572  -73.4800 H         1 UNK         0.0837 
     73 H73       -80.7247   29.0165  -73.4151 H         1 UNK         0.0837 
     74 H74       -80.2968   31.7233  -72.5147 H         1 UNK         0.0685 
     75 H75       -79.8262   31.7261  -70.8315 H         1 UNK         0.0685 
     76 H76       -79.1182   28.5414  -70.9448 H         1 UNK         0.1434 
     77 H77       -75.3769   28.6041  -73.0218 H         1 UNK         0.1329 
     78 H78       -77.9445   32.0323  -73.1485 H         1 UNK         0.1335 
     79 H79       -74.8450   30.4561  -74.4921 H         1 UNK         0.0680 
     80 H80       -76.0299   31.6989  -74.7916 H         1 UNK         0.0680 
     81 H81       -73.7506   30.1842  -72.2122 H         1 UNK         0.1032 
     82 H82       -73.7463   31.3891  -70.9558 H         1 UNK         0.1032 
     83 H83       -71.7641   32.5006  -72.0066 H         1 UNK         0.0461 
     84 H84       -70.9880   32.0276  -69.8865 H         1 UNK         0.3453 
     85 H85       -70.2360   30.5035  -69.4948 H         1 UNK         0.3453 
     86 H86       -72.3300   30.8247  -74.2472 H         1 UNK         0.2984 
     87 H87       -71.0655   31.7048  -76.2442 H         1 UNK         0.0554 
     88 H88       -68.8730   31.3689  -77.3530 H         1 UNK         0.0847 
     89 H89       -68.1023   31.0641  -75.7958 H         1 UNK         0.0847 
     90 H90       -68.7678   32.6500  -76.1593 H         1 UNK         0.0847 
     91 H91       -69.6469   29.1731  -76.0624 H         1 UNK         0.3141 
     92 H92       -70.7531   27.3382  -76.8210 H         1 UNK         0.0743 
     93 H93       -72.4036   27.0118  -74.2489 H         1 UNK         0.0784 
     94 H94       -71.4599   25.7471  -75.0342 H         1 UNK         0.0784 
     95 H95       -70.6512   27.1325  -74.3171 H         1 UNK         0.0784 
     96 H96       -73.4415   26.4954  -76.4323 H         1 UNK         0.3213 
     97 H97       -75.2357   27.5938  -78.3898 H         1 UNK         0.0855 
     98 H98       -73.7399   26.3407  -80.7529 H         1 UNK         0.0814 
     99 H99       -74.4086   27.9631  -80.6803 H         1 UNK         0.0814 
    100 H100      -75.4854   26.5775  -80.6707 H         1 UNK         0.0814 
    101 H101      -75.6505   25.5313  -77.6887 H         1 UNK         0.3105 
    102 H102      -75.2077   22.6551  -78.3279 H         1 UNK         0.0547 
    103 H103      -72.8727   21.9508  -77.9603 H         1 UNK         0.0837 
    104 H104      -72.7997   22.8317  -76.4416 H         1 UNK         0.0837 
    105 H105      -73.8563   21.4293  -76.6048 H         1 UNK         0.0837 
    106 H106      -76.4230   23.0390  -76.5427 H         1 UNK         0.3020 
    107 H107      -75.8208   23.9693  -73.3618 H         1 UNK         0.1245 
    108 H108      -77.4437   26.0705  -74.8923 H         1 UNK         0.0781 
    109 H109      -76.0295   26.4246  -73.9365 H         1 UNK         0.0781 
    110 H110      -75.9148   26.7472  -71.5235 H         1 UNK         0.0836 
    111 H111      -77.2965   26.8659  -70.4660 H         1 UNK         0.0836 
    112 H112      -78.2952   23.7594  -74.8831 H         1 UNK         0.3022 
    113 H113      -78.2128   20.2468  -75.1818 H         1 UNK         0.0747 
    114 H114      -80.3126   20.1944  -73.8464 H         1 UNK         0.0793 
    115 H115      -78.9263   20.3556  -72.7821 H         1 UNK         0.0793 
    116 H116      -79.9250   21.7602  -73.1298 H         1 UNK         0.0793 
    117 H117      -80.3535   22.0733  -75.5545 H         1 UNK         0.3047 
    118 H118      -79.3151   23.8444  -78.3351 H         1 UNK         0.0822 
    119 H119      -81.1037   22.8226  -79.7119 H         1 UNK         0.0807 
    120 H120      -81.1804   21.4277  -78.6337 H         1 UNK         0.0807 
    121 H121      -79.7418   21.7229  -79.6000 H         1 UNK         0.0807 
    122 H122      -81.9472   23.5477  -77.5060 H         1 UNK         0.2946 
    123 H123      -82.6528   25.7440  -76.3231 H         1 UNK         0.1144 
    124 H124      -84.0708   24.4335  -74.6792 H         1 UNK         0.0793 
    125 H125      -82.7040   23.3775  -74.3435 H         1 UNK         0.0793 
    126 H126      -83.4513   23.3884  -75.9371 H         1 UNK         0.0793 
    127 H127      -80.9920   25.7982  -73.9475 H         1 UNK         0.2896 
@<TRIPOS>BOND
     1    1    2 1    
     2    1   67 1    
     3    1   68 1    
     4    1   69 1    
     5    2    3 2    
     6    2    4 am   BACKBONE|DICT|INTERRES
     7    4    5 1    
     8    4   70 1    
     9    5    6 1    
    10    5   65 1    
    11    5   71 1    
    12    6    7 1    
    13    6   72 1    
    14    6   73 1    
    15    7    8 1    
    16    8    9 1    
    17    8   74 1    
    18    8   75 1    
    19    9   10 ar   
    20    9   14 ar   
    21   10   11 ar   
    22   10   76 1    
    23   11   12 ar   
    24   11   48 1    
    25   12   13 ar   
    26   12   77 1    
    27   13   14 ar   
    28   13   15 1    
    29   14   78 1    
    30   15   16 1    
    31   15   79 1    
    32   15   80 1    
    33   16   17 1    
    34   17   18 1    
    35   17   81 1    
    36   17   82 1    
    37   18   19 1    
    38   18   22 1    
    39   18   83 1    
    40   19   20 am   BACKBONE|DICT|INTERRES
    41   19   21 2    
    42   20   84 1    
    43   20   85 1    
    44   22   23 am   BACKBONE|DICT|INTERRES
    45   22   86 1    
    46   23   24 2    
    47   23   25 1    
    48   25   26 1    
    49   25   27 1    
    50   25   87 1    
    51   26   88 1    
    52   26   89 1    
    53   26   90 1    
    54   27   28 am   BACKBONE|DICT|INTERRES
    55   27   91 1    
    56   28   29 2    
    57   28   30 1    
    58   30   31 1    
    59   30   32 1    
    60   30   92 1    
    61   31   93 1    
    62   31   94 1    
    63   31   95 1    
    64   32   33 am   BACKBONE|DICT|INTERRES
    65   32   96 1    
    66   33   34 2    
    67   33   35 1    
    68   35   36 1    
    69   35   37 1    
    70   35   97 1    
    71   36   98 1    
    72   36   99 1    
    73   36  100 1    
    74   37   38 am   BACKBONE|DICT|INTERRES
    75   37  101 1    
    76   38   39 2    
    77   38   40 1    
    78   40   41 1    
    79   40   42 1    
    80   40  102 1    
    81   41  103 1    
    82   41  104 1    
    83   41  105 1    
    84   42   43 am   BACKBONE|DICT|INTERRES
    85   42  106 1    
    86   43   44 2    
    87   43   45 1    
    88   45   46 1    
    89   45   49 1    
    90   45  107 1    
    91   46   47 1    
    92   46  108 1    
    93   46  109 1    
    94   47   48 1    
    95   48  110 1    
    96   48  111 1    
    97   49   50 am   BACKBONE|DICT|INTERRES
    98   49  112 1    
    99   50   51 2    
   100   50   52 1    
   101   52   53 1    
   102   52   54 1    
   103   52  113 1    
   104   53  114 1    
   105   53  115 1    
   106   53  116 1    
   107   54   55 am   BACKBONE|DICT|INTERRES
   108   54  117 1    
   109   55   56 2    
   110   55   57 1    
   111   57   58 1    
   112   57   59 1    
   113   57  118 1    
   114   58  119 1    
   115   58  120 1    
   116   58  121 1    
   117   59   60 am   BACKBONE|DICT|INTERRES
   118   59  122 1    
   119   60   61 2    
   120   60   62 1    
   121   62   63 1    
   122   62   64 1    
   123   62  123 1    
   124   63  124 1    
   125   63  125 1    
   126   63  126 1    
   127   64   65 am   BACKBONE|DICT|INTERRES
   128   64  127 1    
   129   65   66 2    
@<TRIPOS>SUBSTRUCTURE
     1 UNK         1 GROUP             0       ****    0 ROOT    
