@<TRIPOS>MOLECULE
3R135
127   129    1
SMALL
USER_CHARGES


@<TRIPOS>ATOM
      1 CA        -74.3294   25.2757  -70.0605 C.3       0 UNK        -0.1998 
      2 C         -75.7481   24.7293  -69.9954 C.2       0 UNK         0.4909 
      3 O         -75.9591   23.6299  -69.4831 O.2       0 UNK        -0.5240 
      4 N         -76.7202   25.4931  -70.5115 N.am      1 UNK        -0.4739 
      5 CA        -78.1499   25.1528  -70.5579 C.3       1 UNK         0.0864 
      6 C6        -79.0036   26.3630  -71.0176 C.3       11 UNK        -0.0881 
      7 S7        -78.8339   27.7764  -69.8780 S.3       11 UNK        -0.2682 
      8 C8        -80.1022   28.9230  -70.5076 C.3       11 UNK         0.0289 
      9 C9        -79.5918   29.8144  -71.6343 C.ar      11 UNK        -0.0687 
     10 C10       -80.2210   29.8121  -72.8837 C.ar      11 UNK        -0.0823 
     11 C11       -79.8051   30.6920  -73.8890 C.ar      11 UNK        -0.0830 
     12 C12       -78.7494   31.5718  -73.6405 C.ar      11 UNK        -0.1021 
     13 C13       -78.0947   31.5711  -72.4046 C.ar      11 UNK        -0.0753 
     14 C14       -78.5284   30.6944  -71.4052 C.ar      11 UNK        -0.0933 
     15 C15       -76.9396   32.5283  -72.1179 C.3       11 UNK         0.0166 
     16 S16       -75.8052   32.7822  -73.5278 S.3       11 UNK        -0.2615 
     17 C17       -75.2451   31.0800  -73.8744 C.3       11 UNK        -0.0865 
     18 CA        -73.7730   30.8163  -73.4651 C.3       10 UNK         0.0862 
     19 C         -73.6361   30.5293  -71.9363 C.2       10 UNK         0.5551 
     20 N         -73.3507   29.3058  -71.5039 N.am      10 UNK        -0.7319 
     21 O         -73.7685   31.4403  -71.1238 O.2       10 UNK        -0.5018 
     22 N         -73.1827   29.7926  -74.3384 N.am      10 UNK        -0.4509 
     23 C         -71.8780   29.4959  -74.4026 C.2       10 UNK         0.4899 
     24 O         -70.9980   30.1568  -73.8485 O.2       10 UNK        -0.4839 
     25 CA        -71.5036   28.2342  -75.2064 C.3       9 UNK         0.0222 
     26 CB        -70.1439   27.6399  -74.7838 C.3       9 UNK        -0.1966 
     27 N         -72.5486   27.2020  -75.1769 N.am      9 UNK        -0.4218 
     28 C         -73.0756   26.5994  -74.0968 C.2       9 UNK         0.5020 
     29 O         -72.7177   26.8309  -72.9415 O.2       9 UNK        -0.5274 
     30 CA        -74.2478   25.6236  -74.3179 C.3       8 UNK         0.0270 
     31 CB        -75.5482   26.2660  -73.8043 C.3       8 UNK        -0.1976 
     32 N         -74.4353   25.2316  -75.7157 N.am      8 UNK        -0.4313 
     33 C         -73.5959   24.4710  -76.4317 C.2       8 UNK         0.5041 
     34 O         -72.6072   23.9067  -75.9634 O.2       8 UNK        -0.5577 
     35 CA        -73.8806   24.3798  -77.9401 C.3       7 UNK         0.0284 
     36 CB        -74.8038   23.1898  -78.2494 C.3       7 UNK        -0.1958 
     37 N         -74.4572   25.6217  -78.4735 N.am      7 UNK        -0.4454 
     38 C         -73.7923   26.7839  -78.5745 C.2       7 UNK         0.5089 
     39 O         -72.6099   26.9216  -78.2644 O.2       7 UNK        -0.5125 
     40 CA        -74.5898   28.0101  -79.0507 C.3       6 UNK         0.0408 
     41 CB        -74.6939   28.0275  -80.5838 C.3       6 UNK        -0.1791 
     42 N         -75.9300   28.0633  -78.4642 N.am      6 UNK        -0.4762 
     43 C         -76.1928   28.3286  -77.1748 C.2       6 UNK         0.5007 
     44 O         -75.3310   28.6506  -76.3545 O.2       6 UNK        -0.5032 
     45 CA        -77.6575   28.1447  -76.7186 C.3       5 UNK         0.0783 
     46 C46       -78.4359   29.4840  -76.7411 C.3       11 UNK        -0.0857 
     47 S47       -80.1821   29.2572  -76.2419 S.3       11 UNK        -0.2512 
     48 C48       -80.5224   30.7291  -75.2301 C.3       11 UNK         0.0225 
     49 N         -78.3494   27.1006  -77.4876 N.am      5 UNK        -0.4615 
     50 C         -78.0628   25.7975  -77.4332 C.2       4 UNK         0.5053 
     51 O         -77.1156   25.3291  -76.7973 O.2       4 UNK        -0.5105 
     52 CA        -78.9577   24.8675  -78.2541 C.3       4 UNK         0.0263 
     53 CB        -78.3252   24.5520  -79.6195 C.3       4 UNK        -0.1981 
     54 N         -79.1304   23.6391  -77.4901 N.am      4 UNK        -0.4224 
     55 C         -80.2884   22.9929  -77.3139 C.2       3 UNK         0.4895 
     56 O         -81.3260   23.2723  -77.9164 O.2       3 UNK        -0.5091 
     57 CA        -80.3117   21.8437  -76.2850 C.3       3 UNK         0.0250 
     58 CB        -80.2998   20.4843  -77.0041 C.3       3 UNK        -0.1996 
     59 N         -79.2258   21.8685  -75.2953 N.am      3 UNK        -0.4254 
     60 C         -79.0013   22.8442  -74.4027 C.2       2 UNK         0.5004 
     61 O         -79.6802   23.8713  -74.3292 O.2       2 UNK        -0.5226 
     62 CA        -77.7918   22.6326  -73.4694 C.3       2 UNK         0.0269 
     63 CB        -76.4840   22.5326  -74.2776 C.3       2 UNK        -0.1926 
     64 N         -77.6454   23.7036  -72.4804 N.am      2 UNK        -0.4687 
     65 C         -78.4531   23.9148  -71.4315 C.2       1 UNK         0.5165 
     66 O         -79.3931   23.1763  -71.1316 O.2       1 UNK        -0.5079 
     67 H67       -73.8782   25.2706  -69.0687 H         1 UNK         0.0900 
     68 H68       -74.3005   26.2978  -70.4384 H         1 UNK         0.0900 
     69 H69       -73.7181   24.6570  -70.7170 H         1 UNK         0.0900 
     70 H70       -76.4914   26.4124  -70.8608 H         1 UNK         0.2959 
     71 H71       -78.4511   24.8912  -69.5408 H         1 UNK         0.1079 
     72 H72       -78.7221   26.6821  -72.0234 H         1 UNK         0.0837 
     73 H73       -80.0595   26.0880  -71.0642 H         1 UNK         0.0837 
     74 H74       -80.9848   28.3608  -70.8165 H         1 UNK         0.0685 
     75 H75       -80.4248   29.5626  -69.6850 H         1 UNK         0.0685 
     76 H76       -81.0501   29.1431  -73.0707 H         1 UNK         0.1434 
     77 H77       -78.4379   32.2620  -74.4124 H         1 UNK         0.1329 
     78 H78       -78.0459   30.7019  -70.4371 H         1 UNK         0.1335 
     79 H79       -76.3579   32.1752  -71.2656 H         1 UNK         0.0680 
     80 H80       -77.3543   33.4943  -71.8278 H         1 UNK         0.0680 
     81 H81       -75.3600   30.9530  -74.9519 H         1 UNK         0.1032 
     82 H82       -75.9138   30.3416  -73.4284 H         1 UNK         0.1032 
     83 H83       -73.2044   31.7290  -73.6547 H         1 UNK         0.0461 
     84 H84       -73.2524   29.1540  -70.5135 H         1 UNK         0.3453 
     85 H85       -73.1743   28.5405  -72.1470 H         1 UNK         0.3453 
     86 H86       -73.8339   29.2187  -74.8612 H         1 UNK         0.2984 
     87 H87       -71.4188   28.5512  -76.2466 H         1 UNK         0.0554 
     88 H88       -69.8984   26.7557  -75.3721 H         1 UNK         0.0847 
     89 H89       -70.1373   27.3550  -73.7311 H         1 UNK         0.0847 
     90 H90       -69.3377   28.3594  -74.9312 H         1 UNK         0.0847 
     91 H91       -72.9198   26.9502  -76.0849 H         1 UNK         0.3141 
     92 H92       -74.0461   24.7214  -73.7370 H         1 UNK         0.0743 
     93 H93       -75.7235   27.2400  -74.2570 H         1 UNK         0.0784 
     94 H94       -76.4213   25.6488  -74.0096 H         1 UNK         0.0784 
     95 H95       -75.4950   26.4323  -72.7305 H         1 UNK         0.0784 
     96 H96       -75.2810   25.5601  -76.1738 H         1 UNK         0.3213 
     97 H97       -72.9271   24.2096  -78.4453 H         1 UNK         0.0855 
     98 H98       -75.7683   23.2781  -77.7500 H         1 UNK         0.0814 
     99 H99       -74.3532   22.2551  -77.9129 H         1 UNK         0.0814 
    100 H100      -74.9832   23.0929  -79.3201 H         1 UNK         0.0814 
    101 H101      -75.4391   25.6059  -78.7044 H         1 UNK         0.3105 
    102 H102      -74.0460   28.9044  -78.7380 H         1 UNK         0.0547 
    103 H103      -73.7035   28.0071  -81.0409 H         1 UNK         0.0837 
    104 H104      -75.2459   27.1678  -80.9656 H         1 UNK         0.0837 
    105 H105      -75.1921   28.9304  -80.9370 H         1 UNK         0.0837 
    106 H106      -76.7044   27.8208  -79.0651 H         1 UNK         0.3020 
    107 H107      -77.6193   27.8049  -75.6812 H         1 UNK         0.1245 
    108 H108      -77.9569   30.2072  -76.0788 H         1 UNK         0.0781 
    109 H109      -78.4226   29.9254  -77.7394 H         1 UNK         0.0781 
    110 H110      -80.2552   31.6233  -75.7958 H         1 UNK         0.0836 
    111 H111      -81.5974   30.7926  -75.0557 H         1 UNK         0.0836 
    112 H112      -79.1511   27.4075  -78.0199 H         1 UNK         0.3022 
    113 H113      -79.9224   25.3568  -78.4062 H         1 UNK         0.0747 
    114 H114      -78.9701   23.8989  -80.2078 H         1 UNK         0.0793 
    115 H115      -78.1698   25.4616  -80.2009 H         1 UNK         0.0793 
    116 H116      -77.3596   24.0575  -79.5164 H         1 UNK         0.0793 
    117 H117      -78.3418   23.3929  -76.9072 H         1 UNK         0.3047 
    118 H118      -81.2517   21.9314  -75.7361 H         1 UNK         0.0822 
    119 H119      -80.4233   19.6603  -76.3010 H         1 UNK         0.0807 
    120 H120      -79.3694   20.3254  -77.5509 H         1 UNK         0.0807 
    121 H121      -81.1162   20.4155  -77.7246 H         1 UNK         0.0807 
    122 H122      -78.6155   21.0636  -75.2903 H         1 UNK         0.2946 
    123 H123      -77.9466   21.6958  -72.9289 H         1 UNK         0.1144 
    124 H124      -76.4669   21.6383  -74.9012 H         1 UNK         0.0793 
    125 H125      -75.6119   22.4790  -73.6254 H         1 UNK         0.0793 
    126 H126      -76.3561   23.3883  -74.9398 H         1 UNK         0.0793 
    127 H127      -76.9039   24.3674  -72.6394 H         1 UNK         0.2896 
@<TRIPOS>BOND
     1    1    2 1    
     2    1   67 1    
     3    1   68 1    
     4    1   69 1    
     5    2    3 2    
     6    2    4 am   BACKBONE|DICT|INTERRES
     7    4    5 1    
     8    4   70 1    
     9    5    6 1    
    10    5   65 1    
    11    5   71 1    
    12    6    7 1    
    13    6   72 1    
    14    6   73 1    
    15    7    8 1    
    16    8    9 1    
    17    8   74 1    
    18    8   75 1    
    19    9   10 ar   
    20    9   14 ar   
    21   10   11 ar   
    22   10   76 1    
    23   11   12 ar   
    24   11   48 1    
    25   12   13 ar   
    26   12   77 1    
    27   13   14 ar   
    28   13   15 1    
    29   14   78 1    
    30   15   16 1    
    31   15   79 1    
    32   15   80 1    
    33   16   17 1    
    34   17   18 1    
    35   17   81 1    
    36   17   82 1    
    37   18   19 1    
    38   18   22 1    
    39   18   83 1    
    40   19   20 am   BACKBONE|DICT|INTERRES
    41   19   21 2    
    42   20   84 1    
    43   20   85 1    
    44   22   23 am   BACKBONE|DICT|INTERRES
    45   22   86 1    
    46   23   24 2    
    47   23   25 1    
    48   25   26 1    
    49   25   27 1    
    50   25   87 1    
    51   26   88 1    
    52   26   89 1    
    53   26   90 1    
    54   27   28 am   BACKBONE|DICT|INTERRES
    55   27   91 1    
    56   28   29 2    
    57   28   30 1    
    58   30   31 1    
    59   30   32 1    
    60   30   92 1    
    61   31   93 1    
    62   31   94 1    
    63   31   95 1    
    64   32   33 am   BACKBONE|DICT|INTERRES
    65   32   96 1    
    66   33   34 2    
    67   33   35 1    
    68   35   36 1    
    69   35   37 1    
    70   35   97 1    
    71   36   98 1    
    72   36   99 1    
    73   36  100 1    
    74   37   38 am   BACKBONE|DICT|INTERRES
    75   37  101 1    
    76   38   39 2    
    77   38   40 1    
    78   40   41 1    
    79   40   42 1    
    80   40  102 1    
    81   41  103 1    
    82   41  104 1    
    83   41  105 1    
    84   42   43 am   BACKBONE|DICT|INTERRES
    85   42  106 1    
    86   43   44 2    
    87   43   45 1    
    88   45   46 1    
    89   45   49 1    
    90   45  107 1    
    91   46   47 1    
    92   46  108 1    
    93   46  109 1    
    94   47   48 1    
    95   48  110 1    
    96   48  111 1    
    97   49   50 am   BACKBONE|DICT|INTERRES
    98   49  112 1    
    99   50   51 2    
   100   50   52 1    
   101   52   53 1    
   102   52   54 1    
   103   52  113 1    
   104   53  114 1    
   105   53  115 1    
   106   53  116 1    
   107   54   55 am   BACKBONE|DICT|INTERRES
   108   54  117 1    
   109   55   56 2    
   110   55   57 1    
   111   57   58 1    
   112   57   59 1    
   113   57  118 1    
   114   58  119 1    
   115   58  120 1    
   116   58  121 1    
   117   59   60 am   BACKBONE|DICT|INTERRES
   118   59  122 1    
   119   60   61 2    
   120   60   62 1    
   121   62   63 1    
   122   62   64 1    
   123   62  123 1    
   124   63  124 1    
   125   63  125 1    
   126   63  126 1    
   127   64   65 am   BACKBONE|DICT|INTERRES
   128   64  127 1    
   129   65   66 2    
@<TRIPOS>SUBSTRUCTURE
     1 UNK         1 GROUP             0       ****    0 ROOT    
