@<TRIPOS>MOLECULE
3R135
127   129    1
SMALL
USER_CHARGES


@<TRIPOS>ATOM
      1 CA        -83.5594   26.2810  -71.3147 C.3       0 UNK        -0.1998 
      2 C         -82.4772   26.6597  -72.3140 C.2       0 UNK         0.4909 
      3 O         -81.4285   26.0177  -72.3444 O.2       0 UNK        -0.5240 
      4 N         -82.7298   27.6981  -73.1247 N.am      1 UNK        -0.4739 
      5 CA        -81.8325   28.2384  -74.1614 C.3       1 UNK         0.0864 
      6 C6        -80.5197   28.8478  -73.5947 C.3       11 UNK        -0.0881 
      7 S7        -80.8523   30.2167  -72.4329 S.3       11 UNK        -0.2682 
      8 C8        -80.2836   29.5176  -70.8489 C.3       11 UNK         0.0289 
      9 C9        -78.7660   29.4167  -70.7806 C.ar      11 UNK        -0.0687 
     10 C10       -78.1392   28.1712  -70.6767 C.ar      11 UNK        -0.0823 
     11 C11       -76.7431   28.0795  -70.6254 C.ar      11 UNK        -0.0830 
     12 C12       -75.9761   29.2494  -70.6690 C.ar      11 UNK        -0.1021 
     13 C13       -76.5928   30.4999  -70.7615 C.ar      11 UNK        -0.0753 
     14 C14       -77.9868   30.5764  -70.8117 C.ar      11 UNK        -0.0933 
     15 C15       -75.7657   31.7752  -70.7959 C.3       11 UNK         0.0166 
     16 S16       -75.4530   32.3211  -72.5055 S.3       11 UNK        -0.2615 
     17 C17       -73.7641   31.7040  -72.8333 C.3       11 UNK        -0.0865 
     18 CA        -73.6981   30.4609  -73.7652 C.3       10 UNK         0.0862 
     19 C         -73.8762   30.8053  -75.2777 C.2       10 UNK         0.5551 
     20 N         -73.0701   30.2634  -76.1851 N.am      10 UNK        -0.7319 
     21 O         -74.7581   31.5761  -75.6466 O.2       10 UNK        -0.5018 
     22 N         -72.4545   29.7201  -73.5155 N.am      10 UNK        -0.4509 
     23 C         -72.3416   28.5558  -72.8741 C.2       10 UNK         0.4899 
     24 O         -73.2731   27.9523  -72.3429 O.2       10 UNK        -0.4839 
     25 CA        -70.9296   27.9491  -72.8445 C.3       9 UNK         0.0222 
     26 CB        -70.5858   27.3906  -71.4524 C.3       9 UNK        -0.1966 
     27 N         -70.7998   26.8841  -73.8381 N.am      9 UNK        -0.4218 
     28 C         -70.8625   27.0446  -75.1673 C.2       9 UNK         0.5020 
     29 O         -70.9632   28.1431  -75.7210 O.2       9 UNK        -0.5274 
     30 CA        -70.7895   25.7744  -76.0281 C.3       8 UNK         0.0270 
     31 CB        -70.9287   24.4534  -75.2366 C.3       8 UNK        -0.1976 
     32 N         -71.8228   25.8408  -77.0580 N.am      8 UNK        -0.4313 
     33 C         -71.7395   25.2751  -78.2692 C.2       8 UNK         0.5041 
     34 O         -70.7322   24.6885  -78.6710 O.2       8 UNK        -0.5577 
     35 CA        -72.9731   25.3482  -79.1902 C.3       7 UNK         0.0284 
     36 CB        -73.2856   23.9750  -79.8133 C.3       7 UNK        -0.1958 
     37 N         -74.1608   25.8056  -78.4697 N.am      7 UNK        -0.4454 
     38 C         -74.8188   26.9494  -78.6984 C.2       7 UNK         0.5089 
     39 O         -74.5230   27.7415  -79.5937 O.2       7 UNK        -0.5125 
     40 CA        -76.0090   27.2803  -77.7748 C.3       6 UNK         0.0408 
     41 CB        -77.3402   27.0405  -78.5046 C.3       6 UNK        -0.1791 
     42 N         -76.0229   26.5368  -76.5117 N.am      6 UNK        -0.4762 
     43 C         -75.0941   26.6384  -75.5478 C.2       6 UNK         0.5007 
     44 O         -74.0930   27.3433  -75.6415 O.2       6 UNK        -0.5032 
     45 CA        -75.2861   25.7558  -74.2995 C.3       5 UNK         0.0783 
     46 C46       -76.2662   26.4703  -73.3385 C.3       11 UNK        -0.0857 
     47 S47       -76.5941   25.5398  -71.8040 S.3       11 UNK        -0.2512 
     48 C48       -76.0534   26.7216  -70.5228 C.3       11 UNK         0.0225 
     49 N         -75.7432   24.3998  -74.6271 N.am      5 UNK        -0.4615 
     50 C         -75.2543   23.5740  -75.5643 C.2       4 UNK         0.5053 
     51 O         -74.2472   23.8080  -76.2307 O.2       4 UNK        -0.5105 
     52 CA        -76.0629   22.2961  -75.8597 C.3       4 UNK         0.0263 
     53 CB        -75.4021   21.0818  -75.1883 C.3       4 UNK        -0.1981 
     54 N         -77.4793   22.3561  -75.4682 N.am      4 UNK        -0.4224 
     55 C         -78.3685   23.2781  -75.8679 C.2       3 UNK         0.4895 
     56 O         -78.0962   24.2156  -76.6248 O.2       3 UNK        -0.5091 
     57 CA        -79.7790   23.1533  -75.2790 C.3       3 UNK         0.0250 
     58 CB        -79.7661   23.3137  -73.7457 C.3       3 UNK        -0.1996 
     59 N         -80.6258   24.1885  -75.8595 N.am      3 UNK        -0.4254 
     60 C         -81.9434   24.1157  -76.0569 C.2       2 UNK         0.5004 
     61 O         -82.6286   23.1324  -75.7678 O.2       2 UNK        -0.5226 
     62 CA        -82.6024   25.3786  -76.6415 C.3       2 UNK         0.0269 
     63 CB        -84.0389   25.1223  -77.1351 C.3       2 UNK        -0.1926 
     64 N         -82.6288   26.4520  -75.6459 N.am      2 UNK        -0.4687 
     65 C         -81.5879   27.2271  -75.3057 C.2       1 UNK         0.5165 
     66 O         -80.4881   27.1598  -75.8595 O.2       1 UNK        -0.5079 
     67 H67       -83.8842   25.2550  -71.4856 H         1 UNK         0.0900 
     68 H68       -84.4312   26.9305  -71.3898 H         1 UNK         0.0900 
     69 H69       -83.1710   26.3510  -70.2989 H         1 UNK         0.0900 
     70 H70       -83.6112   28.1842  -73.0318 H         1 UNK         0.2959 
     71 H71       -82.3823   29.0549  -74.6327 H         1 UNK         0.1079 
     72 H72       -79.9084   28.0811  -73.1159 H         1 UNK         0.0837 
     73 H73       -79.9072   29.2565  -74.4004 H         1 UNK         0.0837 
     74 H74       -80.7504   28.5441  -70.6930 H         1 UNK         0.0685 
     75 H75       -80.6317   30.1581  -70.0375 H         1 UNK         0.0685 
     76 H76       -78.7361   27.2692  -70.6498 H         1 UNK         0.1434 
     77 H77       -74.8968   29.1891  -70.6349 H         1 UNK         0.1329 
     78 H78       -78.4689   31.5416  -70.8891 H         1 UNK         0.1335 
     79 H79       -76.3047   32.5688  -70.2760 H         1 UNK         0.0680 
     80 H80       -74.8327   31.6445  -70.2466 H         1 UNK         0.0680 
     81 H81       -73.1719   32.5218  -73.2480 H         1 UNK         0.1032 
     82 H82       -73.2937   31.4743  -71.8766 H         1 UNK         0.1032 
     83 H83       -74.5407   29.8100  -73.5237 H         1 UNK         0.0461 
     84 H84       -73.2019   30.4949  -77.1559 H         1 UNK         0.3453 
     85 H85       -72.4046   29.5420  -75.9266 H         1 UNK         0.3453 
     86 H86       -71.6349   30.0957  -73.9721 H         1 UNK         0.2984 
     87 H87       -70.2020   28.7282  -73.0820 H         1 UNK         0.0554 
     88 H88       -69.5605   27.0222  -71.4134 H         1 UNK         0.0847 
     89 H89       -71.2481   26.5721  -71.1666 H         1 UNK         0.0847 
     90 H90       -70.6799   28.1647  -70.6896 H         1 UNK         0.0847 
     91 H91       -70.7376   25.9428  -73.4795 H         1 UNK         0.3141 
     92 H92       -69.8075   25.7901  -76.5054 H         1 UNK         0.0743 
     93 H93       -70.1229   24.3306  -74.5119 H         1 UNK         0.0784 
     94 H94       -71.8795   24.3989  -74.7042 H         1 UNK         0.0784 
     95 H95       -70.8822   23.5915  -75.9028 H         1 UNK         0.0784 
     96 H96       -72.6489   26.3766  -76.8077 H         1 UNK         0.3213 
     97 H97       -72.7213   26.0408  -79.9959 H         1 UNK         0.0855 
     98 H98       -73.4919   23.2258  -79.0476 H         1 UNK         0.0814 
     99 H99       -72.4478   23.6118  -80.4097 H         1 UNK         0.0814 
    100 H100      -74.1513   24.0273  -80.4736 H         1 UNK         0.0814 
    101 H101      -74.4466   25.2232  -77.6879 H         1 UNK         0.3105 
    102 H102      -75.9403   28.3421  -77.5290 H         1 UNK         0.0547 
    103 H103      -77.4709   25.9897  -78.7667 H         1 UNK         0.0837 
    104 H104      -78.1903   27.3396  -77.8905 H         1 UNK         0.0837 
    105 H105      -77.3899   27.6169  -79.4294 H         1 UNK         0.0837 
    106 H106      -76.7818   25.8735  -76.3885 H         1 UNK         0.3020 
    107 H107      -74.3144   25.6666  -73.8089 H         1 UNK         0.1245 
    108 H108      -77.2299   26.6421  -73.8233 H         1 UNK         0.0781 
    109 H109      -75.8781   27.4595  -73.0891 H         1 UNK         0.0781 
    110 H110      -76.2596   26.2950  -69.5405 H         1 UNK         0.0836 
    111 H111      -74.9699   26.8304  -70.5878 H         1 UNK         0.0836 
    112 H112      -76.5632   24.0967  -74.1237 H         1 UNK         0.3022 
    113 H113      -76.0342   22.1475  -76.9411 H         1 UNK         0.0747 
    114 H114      -74.3544   20.9958  -75.4811 H         1 UNK         0.0793 
    115 H115      -75.8926   20.1516  -75.4758 H         1 UNK         0.0793 
    116 H116      -75.4308   21.1569  -74.1005 H         1 UNK         0.0793 
    117 H117      -77.7954   21.6286  -74.8428 H         1 UNK         0.3047 
    118 H118      -80.1693   22.1689  -75.5461 H         1 UNK         0.0822 
    119 H119      -79.1799   22.5325  -73.2612 H         1 UNK         0.0807 
    120 H120      -80.7742   23.2565  -73.3340 H         1 UNK         0.0807 
    121 H121      -79.3458   24.2753  -73.4461 H         1 UNK         0.0807 
    122 H122      -80.1358   25.0359  -76.1299 H         1 UNK         0.2946 
    123 H123      -82.0052   25.6981  -77.4991 H         1 UNK         0.1144 
    124 H124      -84.7007   24.8211  -76.3220 H         1 UNK         0.0793 
    125 H125      -84.0578   24.3281  -77.8826 H         1 UNK         0.0793 
    126 H126      -84.4628   26.0127  -77.5998 H         1 UNK         0.0793 
    127 H127      -83.4806   26.5482  -75.1121 H         1 UNK         0.2896 
@<TRIPOS>BOND
     1    1    2 1    
     2    1   67 1    
     3    1   68 1    
     4    1   69 1    
     5    2    3 2    
     6    2    4 am   BACKBONE|DICT|INTERRES
     7    4    5 1    
     8    4   70 1    
     9    5    6 1    
    10    5   65 1    
    11    5   71 1    
    12    6    7 1    
    13    6   72 1    
    14    6   73 1    
    15    7    8 1    
    16    8    9 1    
    17    8   74 1    
    18    8   75 1    
    19    9   10 ar   
    20    9   14 ar   
    21   10   11 ar   
    22   10   76 1    
    23   11   12 ar   
    24   11   48 1    
    25   12   13 ar   
    26   12   77 1    
    27   13   14 ar   
    28   13   15 1    
    29   14   78 1    
    30   15   16 1    
    31   15   79 1    
    32   15   80 1    
    33   16   17 1    
    34   17   18 1    
    35   17   81 1    
    36   17   82 1    
    37   18   19 1    
    38   18   22 1    
    39   18   83 1    
    40   19   20 am   BACKBONE|DICT|INTERRES
    41   19   21 2    
    42   20   84 1    
    43   20   85 1    
    44   22   23 am   BACKBONE|DICT|INTERRES
    45   22   86 1    
    46   23   24 2    
    47   23   25 1    
    48   25   26 1    
    49   25   27 1    
    50   25   87 1    
    51   26   88 1    
    52   26   89 1    
    53   26   90 1    
    54   27   28 am   BACKBONE|DICT|INTERRES
    55   27   91 1    
    56   28   29 2    
    57   28   30 1    
    58   30   31 1    
    59   30   32 1    
    60   30   92 1    
    61   31   93 1    
    62   31   94 1    
    63   31   95 1    
    64   32   33 am   BACKBONE|DICT|INTERRES
    65   32   96 1    
    66   33   34 2    
    67   33   35 1    
    68   35   36 1    
    69   35   37 1    
    70   35   97 1    
    71   36   98 1    
    72   36   99 1    
    73   36  100 1    
    74   37   38 am   BACKBONE|DICT|INTERRES
    75   37  101 1    
    76   38   39 2    
    77   38   40 1    
    78   40   41 1    
    79   40   42 1    
    80   40  102 1    
    81   41  103 1    
    82   41  104 1    
    83   41  105 1    
    84   42   43 am   BACKBONE|DICT|INTERRES
    85   42  106 1    
    86   43   44 2    
    87   43   45 1    
    88   45   46 1    
    89   45   49 1    
    90   45  107 1    
    91   46   47 1    
    92   46  108 1    
    93   46  109 1    
    94   47   48 1    
    95   48  110 1    
    96   48  111 1    
    97   49   50 am   BACKBONE|DICT|INTERRES
    98   49  112 1    
    99   50   51 2    
   100   50   52 1    
   101   52   53 1    
   102   52   54 1    
   103   52  113 1    
   104   53  114 1    
   105   53  115 1    
   106   53  116 1    
   107   54   55 am   BACKBONE|DICT|INTERRES
   108   54  117 1    
   109   55   56 2    
   110   55   57 1    
   111   57   58 1    
   112   57   59 1    
   113   57  118 1    
   114   58  119 1    
   115   58  120 1    
   116   58  121 1    
   117   59   60 am   BACKBONE|DICT|INTERRES
   118   59  122 1    
   119   60   61 2    
   120   60   62 1    
   121   62   63 1    
   122   62   64 1    
   123   62  123 1    
   124   63  124 1    
   125   63  125 1    
   126   63  126 1    
   127   64   65 am   BACKBONE|DICT|INTERRES
   128   64  127 1    
   129   65   66 2    
@<TRIPOS>SUBSTRUCTURE
     1 UNK         1 GROUP             0       ****    0 ROOT    
