@<TRIPOS>MOLECULE
3R135
127   129    1
SMALL
USER_CHARGES


@<TRIPOS>ATOM
      1 CA        -75.8230   22.4358  -74.9940 C.3       0 UNK        -0.1998 
      2 C         -76.9170   22.2869  -73.9465 C.2       0 UNK         0.4909 
      3 O         -76.9991   21.2509  -73.2854 O.2       0 UNK        -0.5240 
      4 N         -77.7489   23.3197  -73.7940 N.am      1 UNK        -0.4739 
      5 CA        -78.8992   23.3662  -72.8877 C.3       1 UNK         0.0864 
      6 C6        -79.0059   24.7612  -72.2201 C.3       11 UNK        -0.0881 
      7 S7        -77.6342   25.0548  -71.0581 S.3       11 UNK        -0.2682 
      8 C8        -78.2566   26.5010  -70.1494 C.3       11 UNK         0.0289 
      9 C9        -78.2340   27.7538  -71.0108 C.ar      11 UNK        -0.0687 
     10 C10       -79.4006   28.2164  -71.6275 C.ar      11 UNK        -0.0823 
     11 C11       -79.3778   29.3781  -72.4056 C.ar      11 UNK        -0.0830 
     12 C12       -78.1763   30.0793  -72.5616 C.ar      11 UNK        -0.1021 
     13 C13       -77.0043   29.6216  -71.9529 C.ar      11 UNK        -0.0753 
     14 C14       -77.0400   28.4592  -71.1788 C.ar      11 UNK        -0.0933 
     15 C15       -75.7014   30.3910  -72.0964 C.3       11 UNK         0.0166 
     16 S16       -74.5858   29.6011  -73.2965 S.3       11 UNK        -0.2615 
     17 C17       -73.0007   30.3917  -72.8508 C.3       11 UNK        -0.0865 
     18 CA        -72.2278   30.9442  -74.0744 C.3       10 UNK         0.0862 
     19 C         -71.0500   31.8417  -73.6018 C.2       10 UNK         0.5551 
     20 N         -71.2506   33.1515  -73.5505 N.am      10 UNK        -0.7319 
     21 O         -69.9806   31.3591  -73.2354 O.2       10 UNK        -0.5018 
     22 N         -71.7833   29.8686  -74.9773 N.am      10 UNK        -0.4509 
     23 C         -71.2611   30.0819  -76.1955 C.2       10 UNK         0.4899 
     24 O         -71.1779   31.2011  -76.7040 O.2       10 UNK        -0.4839 
     25 CA        -70.7925   28.8625  -77.0177 C.3       9 UNK         0.0222 
     26 CB        -69.5842   29.1836  -77.9240 C.3       9 UNK        -0.1966 
     27 N         -70.5624   27.6471  -76.2298 N.am      9 UNK        -0.4218 
     28 C         -69.6081   27.4192  -75.3123 C.2       9 UNK         0.5020 
     29 O         -68.7126   28.2192  -75.0374 O.2       9 UNK        -0.5274 
     30 CA        -69.6782   26.0606  -74.5754 C.3       8 UNK         0.0270 
     31 CB        -68.9480   26.0785  -73.2148 C.3       8 UNK        -0.1976 
     32 N         -71.0528   25.5564  -74.4268 N.am      8 UNK        -0.4313 
     33 C         -72.0652   26.1868  -73.8141 C.2       8 UNK         0.5041 
     34 O         -71.9454   27.2458  -73.1976 O.2       8 UNK        -0.5577 
     35 CA        -73.4682   25.5954  -74.0232 C.3       7 UNK         0.0284 
     36 CB        -74.1887   25.3597  -72.6864 C.3       7 UNK        -0.1958 
     37 N         -74.2683   26.5028  -74.8470 N.am      7 UNK        -0.4454 
     38 C         -74.0015   26.8223  -76.1215 C.2       7 UNK         0.5089 
     39 O         -73.0920   26.3046  -76.7728 O.2       7 UNK        -0.5125 
     40 CA        -74.8928   27.8956  -76.7657 C.3       6 UNK         0.0408 
     41 CB        -74.8545   27.8616  -78.3067 C.3       6 UNK        -0.1791 
     42 N         -76.2641   27.7452  -76.2897 N.am      6 UNK        -0.4762 
     43 C         -77.2061   28.6921  -76.2499 C.2       6 UNK         0.5007 
     44 O         -77.0251   29.8478  -76.6372 O.2       6 UNK        -0.5032 
     45 CA        -78.5884   28.2470  -75.7168 C.3       5 UNK         0.0783 
     46 C46       -79.6050   29.4144  -75.6400 C.3       11 UNK        -0.0857 
     47 S47       -81.0375   28.9750  -74.6016 S.3       11 UNK        -0.2512 
     48 C48       -80.6555   29.8800  -73.0661 C.3       11 UNK         0.0225 
     49 N         -79.1262   27.1310  -76.5059 N.am      5 UNK        -0.4615 
     50 C         -78.7054   25.8630  -76.4676 C.2       4 UNK         0.5053 
     51 O         -77.8406   25.4562  -75.6873 O.2       4 UNK        -0.5105 
     52 CA        -79.3461   24.9107  -77.4864 C.3       4 UNK         0.0263 
     53 CB        -78.5217   23.6256  -77.6915 C.3       4 UNK        -0.1981 
     54 N         -80.7053   24.5654  -77.0721 N.am      4 UNK        -0.4224 
     55 C         -81.7980   25.2850  -77.3695 C.2       3 UNK         0.4895 
     56 O         -81.7572   26.3318  -78.0183 O.2       3 UNK        -0.5091 
     57 CA        -83.1682   24.7600  -76.8971 C.3       3 UNK         0.0250 
     58 CB        -83.9274   24.1221  -78.0725 C.3       3 UNK        -0.1996 
     59 N         -83.0755   23.7849  -75.8084 N.am      3 UNK        -0.4254 
     60 C         -82.9164   24.1049  -74.5180 C.2       2 UNK         0.5004 
     61 O         -82.9035   25.2623  -74.0967 O.2       2 UNK        -0.5226 
     62 CA        -82.6882   22.9507  -73.5198 C.3       2 UNK         0.0269 
     63 CB        -82.9824   21.5413  -74.0859 C.3       2 UNK        -0.1926 
     64 N         -81.3311   23.0219  -72.9611 N.am      2 UNK        -0.4687 
     65 C         -80.1871   23.0205  -73.6638 C.2       1 UNK         0.5165 
     66 O         -80.1446   22.7893  -74.8751 O.2       1 UNK        -0.5079 
     67 H67       -74.8447   22.2823  -74.5399 H         1 UNK         0.0900 
     68 H68       -75.8319   23.4255  -75.4517 H         1 UNK         0.0900 
     69 H69       -75.9556   21.6960  -75.7827 H         1 UNK         0.0900 
     70 H70       -77.6785   24.1127  -74.4284 H         1 UNK         0.2959 
     71 H71       -78.7887   22.6106  -72.1067 H         1 UNK         0.1079 
     72 H72       -79.0106   25.5519  -72.9737 H         1 UNK         0.0837 
     73 H73       -79.9358   24.8668  -71.6594 H         1 UNK         0.0837 
     74 H74       -79.2630   26.3011  -69.7782 H         1 UNK         0.0685 
     75 H75       -77.6335   26.6554  -69.2672 H         1 UNK         0.0685 
     76 H76       -80.3275   27.6728  -71.5042 H         1 UNK         0.1434 
     77 H77       -78.1515   30.9835  -73.1543 H         1 UNK         0.1329 
     78 H78       -76.1352   28.1026  -70.7055 H         1 UNK         0.1335 
     79 H79       -75.8895   31.4211  -72.4033 H         1 UNK         0.0680 
     80 H80       -75.2145   30.4415  -71.1211 H         1 UNK         0.0680 
     81 H81       -72.3905   29.6707  -72.3043 H         1 UNK         0.1032 
     82 H82       -73.2019   31.2002  -72.1452 H         1 UNK         0.1032 
     83 H83       -72.9173   31.5717  -74.6436 H         1 UNK         0.0461 
     84 H84       -70.5050   33.7495  -73.2297 H         1 UNK         0.3453 
     85 H85       -72.1269   33.5568  -73.8411 H         1 UNK         0.3453 
     86 H86       -71.7905   28.9339  -74.5859 H         1 UNK         0.2984 
     87 H87       -71.6274   28.6220  -77.6764 H         1 UNK         0.0554 
     88 H88       -69.2770   28.3119  -78.5017 H         1 UNK         0.0847 
     89 H89       -68.7242   29.5261  -77.3481 H         1 UNK         0.0847 
     90 H90       -69.8278   29.9716  -78.6377 H         1 UNK         0.0847 
     91 H91       -71.2685   26.9276  -76.3635 H         1 UNK         0.3141 
     92 H92       -69.1592   25.3466  -75.2167 H         1 UNK         0.0743 
     93 H93       -69.3672   26.8260  -72.5404 H         1 UNK         0.0784 
     94 H94       -69.0065   25.1093  -72.7198 H         1 UNK         0.0784 
     95 H95       -67.8904   26.3131  -73.3410 H         1 UNK         0.0784 
     96 H96       -71.2616   24.7104  -74.9405 H         1 UNK         0.3213 
     97 H97       -73.3871   24.6388  -74.5435 H         1 UNK         0.0855 
     98 H98       -74.3387   26.2905  -72.1371 H         1 UNK         0.0814 
     99 H99       -73.6143   24.6905  -72.0450 H         1 UNK         0.0814 
    100 H100      -75.1657   24.9018  -72.8407 H         1 UNK         0.0814 
    101 H101      -74.9753   27.0392  -74.3640 H         1 UNK         0.3105 
    102 H102      -74.5081   28.8606  -76.4293 H         1 UNK         0.0547 
    103 H103      -73.8393   27.9992  -78.6800 H         1 UNK         0.0837 
    104 H104      -75.2193   26.9098  -78.6941 H         1 UNK         0.0837 
    105 H105      -75.4634   28.6553  -78.7392 H         1 UNK         0.0837 
    106 H106      -76.5320   26.8105  -75.9870 H         1 UNK         0.3020 
    107 H107      -78.4104   27.8898  -74.6992 H         1 UNK         0.1245 
    108 H108      -79.9608   29.6817  -76.6365 H         1 UNK         0.0781 
    109 H109      -79.1483   30.3199  -75.2385 H         1 UNK         0.0781 
    110 H110      -81.4917   29.7674  -72.3744 H         1 UNK         0.0836 
    111 H111      -80.5850   30.9474  -73.2815 H         1 UNK         0.0836 
    112 H112      -79.8698   27.3616  -77.1526 H         1 UNK         0.3022 
    113 H113      -79.3778   25.4266  -78.4487 H         1 UNK         0.0747 
    114 H114      -78.9726   22.9835  -78.4480 H         1 UNK         0.0793 
    115 H115      -77.5115   23.8628  -78.0277 H         1 UNK         0.0793 
    116 H116      -78.4272   23.0443  -76.7751 H         1 UNK         0.0793 
    117 H117      -80.7833   23.7735  -76.4399 H         1 UNK         0.3047 
    118 H118      -83.7434   25.6218  -76.5511 H         1 UNK         0.0822 
    119 H119      -84.9273   23.8059  -77.7745 H         1 UNK         0.0807 
    120 H120      -83.4028   23.2516  -78.4686 H         1 UNK         0.0807 
    121 H121      -84.0455   24.8320  -78.8925 H         1 UNK         0.0807 
    122 H122      -83.0516   22.8092  -76.0683 H         1 UNK         0.2946 
    123 H123      -83.3814   23.1253  -72.6950 H         1 UNK         0.1144 
    124 H124      -84.0057   21.4727  -74.4578 H         1 UNK         0.0793 
    125 H125      -82.8771   20.7833  -73.3097 H         1 UNK         0.0793 
    126 H126      -82.3129   21.2655  -74.9011 H         1 UNK         0.0793 
    127 H127      -81.2846   23.2216  -71.9715 H         1 UNK         0.2896 
@<TRIPOS>BOND
     1    1    2 1    
     2    1   67 1    
     3    1   68 1    
     4    1   69 1    
     5    2    3 2    
     6    2    4 am   BACKBONE|DICT|INTERRES
     7    4    5 1    
     8    4   70 1    
     9    5    6 1    
    10    5   65 1    
    11    5   71 1    
    12    6    7 1    
    13    6   72 1    
    14    6   73 1    
    15    7    8 1    
    16    8    9 1    
    17    8   74 1    
    18    8   75 1    
    19    9   10 ar   
    20    9   14 ar   
    21   10   11 ar   
    22   10   76 1    
    23   11   12 ar   
    24   11   48 1    
    25   12   13 ar   
    26   12   77 1    
    27   13   14 ar   
    28   13   15 1    
    29   14   78 1    
    30   15   16 1    
    31   15   79 1    
    32   15   80 1    
    33   16   17 1    
    34   17   18 1    
    35   17   81 1    
    36   17   82 1    
    37   18   19 1    
    38   18   22 1    
    39   18   83 1    
    40   19   20 am   BACKBONE|DICT|INTERRES
    41   19   21 2    
    42   20   84 1    
    43   20   85 1    
    44   22   23 am   BACKBONE|DICT|INTERRES
    45   22   86 1    
    46   23   24 2    
    47   23   25 1    
    48   25   26 1    
    49   25   27 1    
    50   25   87 1    
    51   26   88 1    
    52   26   89 1    
    53   26   90 1    
    54   27   28 am   BACKBONE|DICT|INTERRES
    55   27   91 1    
    56   28   29 2    
    57   28   30 1    
    58   30   31 1    
    59   30   32 1    
    60   30   92 1    
    61   31   93 1    
    62   31   94 1    
    63   31   95 1    
    64   32   33 am   BACKBONE|DICT|INTERRES
    65   32   96 1    
    66   33   34 2    
    67   33   35 1    
    68   35   36 1    
    69   35   37 1    
    70   35   97 1    
    71   36   98 1    
    72   36   99 1    
    73   36  100 1    
    74   37   38 am   BACKBONE|DICT|INTERRES
    75   37  101 1    
    76   38   39 2    
    77   38   40 1    
    78   40   41 1    
    79   40   42 1    
    80   40  102 1    
    81   41  103 1    
    82   41  104 1    
    83   41  105 1    
    84   42   43 am   BACKBONE|DICT|INTERRES
    85   42  106 1    
    86   43   44 2    
    87   43   45 1    
    88   45   46 1    
    89   45   49 1    
    90   45  107 1    
    91   46   47 1    
    92   46  108 1    
    93   46  109 1    
    94   47   48 1    
    95   48  110 1    
    96   48  111 1    
    97   49   50 am   BACKBONE|DICT|INTERRES
    98   49  112 1    
    99   50   51 2    
   100   50   52 1    
   101   52   53 1    
   102   52   54 1    
   103   52  113 1    
   104   53  114 1    
   105   53  115 1    
   106   53  116 1    
   107   54   55 am   BACKBONE|DICT|INTERRES
   108   54  117 1    
   109   55   56 2    
   110   55   57 1    
   111   57   58 1    
   112   57   59 1    
   113   57  118 1    
   114   58  119 1    
   115   58  120 1    
   116   58  121 1    
   117   59   60 am   BACKBONE|DICT|INTERRES
   118   59  122 1    
   119   60   61 2    
   120   60   62 1    
   121   62   63 1    
   122   62   64 1    
   123   62  123 1    
   124   63  124 1    
   125   63  125 1    
   126   63  126 1    
   127   64   65 am   BACKBONE|DICT|INTERRES
   128   64  127 1    
   129   65   66 2    
@<TRIPOS>SUBSTRUCTURE
     1 UNK         1 GROUP             0       ****    0 ROOT    
