@<TRIPOS>MOLECULE
3R135
127   129    1
SMALL
USER_CHARGES


@<TRIPOS>ATOM
      1 CA        -78.0824   27.8127  -75.8989 C.3       0 UNK        -0.1998 
      2 C         -79.3967   27.4979  -75.2022 C.2       0 UNK         0.4909 
      3 O         -80.4349   27.4458  -75.8616 O.2       0 UNK        -0.5240 
      4 N         -79.3528   27.2762  -73.8812 N.am      1 UNK        -0.4739 
      5 CA        -80.4826   26.9874  -72.9887 C.3       1 UNK         0.0864 
      6 C6        -81.3307   28.2612  -72.6713 C.3       11 UNK        -0.0881 
      7 S7        -81.5384   28.4894  -70.8728 S.3       11 UNK        -0.2682 
      8 C8        -80.2297   29.7072  -70.4923 C.3       11 UNK         0.0289 
      9 C9        -78.8603   29.2693  -70.9994 C.ar      11 UNK        -0.0687 
     10 C10       -78.2582   28.1146  -70.4925 C.ar      11 UNK        -0.0823 
     11 C11       -77.0422   27.6661  -71.0122 C.ar      11 UNK        -0.0830 
     12 C12       -76.4061   28.4044  -72.0124 C.ar      11 UNK        -0.1021 
     13 C13       -76.9820   29.5776  -72.5183 C.ar      11 UNK        -0.0753 
     14 C14       -78.2126   29.9983  -72.0029 C.ar      11 UNK        -0.0933 
     15 C15       -76.3404   30.4074  -73.6353 C.3       11 UNK         0.0166 
     16 S16       -74.6621   29.8954  -74.1463 S.3       11 UNK        -0.2615 
     17 C17       -73.6811   30.3917  -72.6853 C.3       11 UNK        -0.0865 
     18 CA        -72.5737   31.4153  -73.0420 C.3       10 UNK         0.0862 
     19 C         -71.8993   31.9862  -71.7605 C.2       10 UNK         0.5551 
     20 N         -70.6033   31.7936  -71.5456 N.am      10 UNK        -0.7319 
     21 O         -72.5660   32.6246  -70.9498 O.2       10 UNK        -0.5018 
     22 N         -71.6333   30.8485  -74.0193 N.am      10 UNK        -0.4509 
     23 C         -70.8902   31.5413  -74.8856 C.2       10 UNK         0.4899 
     24 O         -70.9047   32.7699  -74.9667 O.2       10 UNK        -0.4839 
     25 CA        -69.9850   30.7421  -75.8433 C.3       9 UNK         0.0222 
     26 CB        -68.5411   30.6760  -75.3082 C.3       9 UNK        -0.1966 
     27 N         -70.4827   29.4059  -76.2128 N.am      9 UNK        -0.4218 
     28 C         -70.6235   28.3059  -75.4603 C.2       9 UNK         0.5020 
     29 O         -70.3945   28.2685  -74.2498 O.2       9 UNK        -0.5274 
     30 CA        -71.1530   27.0532  -76.1847 C.3       8 UNK         0.0270 
     31 CB        -70.9005   25.7627  -75.3835 C.3       8 UNK        -0.1976 
     32 N         -72.5836   27.1471  -76.4810 N.am      8 UNK        -0.4313 
     33 C         -73.1449   27.9560  -77.3925 C.2       8 UNK         0.5041 
     34 O         -72.4999   28.7388  -78.0950 O.2       8 UNK        -0.5577 
     35 CA        -74.6761   27.8505  -77.5539 C.3       7 UNK         0.0284 
     36 CB        -75.2000   28.5252  -78.8390 C.3       7 UNK        -0.1958 
     37 N         -75.1553   26.4661  -77.4529 N.am      7 UNK        -0.4454 
     38 C         -74.7998   25.4208  -78.2154 C.2       7 UNK         0.5089 
     39 O         -74.0936   25.5130  -79.2203 O.2       7 UNK        -0.5125 
     40 CA        -75.3101   24.0306  -77.7786 C.3       6 UNK         0.0408 
     41 CB        -74.2229   22.9491  -77.9485 C.3       6 UNK        -0.1791 
     42 N         -75.8819   23.9601  -76.4233 N.am      6 UNK        -0.4762 
     43 C         -75.2745   24.2214  -75.2512 C.2       6 UNK         0.5007 
     44 O         -74.1413   24.6979  -75.1726 O.2       6 UNK        -0.5032 
     45 CA        -76.0668   23.9509  -73.9498 C.3       5 UNK         0.0783 
     46 C46       -76.1835   25.2371  -73.0970 C.3       11 UNK        -0.0857 
     47 S47       -77.0155   24.9480  -71.4973 S.3       11 UNK        -0.2512 
     48 C48       -76.4283   26.3662  -70.5169 C.3       11 UNK         0.0225 
     49 N         -77.3821   23.3537  -74.2104 N.am      5 UNK        -0.4615 
     50 C         -77.5988   22.0552  -74.4519 C.2       4 UNK         0.5053 
     51 O         -76.7146   21.1989  -74.4479 O.2       4 UNK        -0.5105 
     52 CA        -79.0428   21.6523  -74.7870 C.3       4 UNK         0.0263 
     53 CB        -79.8013   21.2523  -73.5116 C.3       4 UNK        -0.1981 
     54 N         -79.7872   22.7060  -75.4844 N.am      4 UNK        -0.4224 
     55 C         -79.5564   23.1100  -76.7430 C.2       3 UNK         0.4895 
     56 O         -78.6238   22.6781  -77.4209 O.2       3 UNK        -0.5091 
     57 CA        -80.4701   24.1949  -77.3551 C.3       3 UNK         0.0250 
     58 CB        -81.1182   23.7132  -78.6692 C.3       3 UNK        -0.1996 
     59 N         -81.4737   24.7546  -76.4389 N.am      3 UNK        -0.4254 
     60 C         -82.5232   24.1423  -75.8651 C.2       2 UNK         0.5004 
     61 O         -82.8703   22.9898  -76.1253 O.2       2 UNK        -0.5226 
     62 CA        -83.2702   24.9359  -74.7697 C.3       2 UNK         0.0269 
     63 CB        -83.9315   24.0140  -73.7226 C.3       2 UNK        -0.1926 
     64 N         -82.4313   25.9461  -74.1042 N.am      2 UNK        -0.4687 
     65 C         -81.2708   25.7442  -73.4571 C.2       1 UNK         0.5165 
     66 O         -80.7696   24.6304  -73.2919 O.2       1 UNK        -0.5079 
     67 H67       -77.8927   27.0785  -76.6807 H         1 UNK         0.0900 
     68 H68       -78.1350   28.7962  -76.3651 H         1 UNK         0.0900 
     69 H69       -77.2400   27.8124  -75.2082 H         1 UNK         0.0900 
     70 H70       -78.4663   27.3515  -73.4016 H         1 UNK         0.2959 
     71 H71       -80.0035   26.6549  -72.0670 H         1 UNK         0.1079 
     72 H72       -82.3193   28.2613  -73.1284 H         1 UNK         0.0837 
     73 H73       -80.8511   29.1551  -73.0731 H         1 UNK         0.0837 
     74 H74       -80.1828   29.8521  -69.4122 H         1 UNK         0.0685 
     75 H75       -80.5112   30.6710  -70.9195 H         1 UNK         0.0685 
     76 H76       -78.7608   27.5416  -69.7249 H         1 UNK         0.1434 
     77 H77       -75.4666   28.0402  -72.4000 H         1 UNK         0.1329 
     78 H78       -78.6776   30.8907  -72.3995 H         1 UNK         0.1335 
     79 H79       -76.3078   31.4558  -73.3348 H         1 UNK         0.0680 
     80 H80       -76.9872   30.3611  -74.5121 H         1 UNK         0.0680 
     81 H81       -73.2428   29.4960  -72.2415 H         1 UNK         0.1032 
     82 H82       -74.3515   30.8021  -71.9274 H         1 UNK         0.1032 
     83 H83       -73.0639   32.2680  -73.5161 H         1 UNK         0.0461 
     84 H84       -70.1763   32.1720  -70.7149 H         1 UNK         0.3453 
     85 H85       -70.0522   31.2696  -72.2061 H         1 UNK         0.3453 
     86 H86       -71.4946   29.8438  -73.9861 H         1 UNK         0.2984 
     87 H87       -69.9599   31.3054  -76.7774 H         1 UNK         0.0554 
     88 H88       -68.1448   31.6773  -75.1338 H         1 UNK         0.0847 
     89 H89       -67.8766   30.1853  -76.0193 H         1 UNK         0.0847 
     90 H90       -68.4785   30.1358  -74.3632 H         1 UNK         0.0847 
     91 H91       -70.8657   29.3356  -77.1531 H         1 UNK         0.3141 
     92 H92       -70.6123   26.9664  -77.1296 H         1 UNK         0.0743 
     93 H93       -69.8415   25.6484  -75.1484 H         1 UNK         0.0784 
     94 H94       -71.2052   24.8805  -75.9472 H         1 UNK         0.0784 
     95 H95       -71.4480   25.7588  -74.4398 H         1 UNK         0.0784 
     96 H96       -73.1835   26.5127  -75.9654 H         1 UNK         0.3213 
     97 H97       -75.1041   28.3881  -76.7075 H         1 UNK         0.0855 
     98 H98       -74.7683   28.0801  -79.7358 H         1 UNK         0.0814 
     99 H99       -74.9492   29.5866  -78.8513 H         1 UNK         0.0814 
    100 H100      -76.2846   28.4486  -78.9137 H         1 UNK         0.0814 
    101 H101      -75.7163   26.2503  -76.6432 H         1 UNK         0.3105 
    102 H102      -76.1270   23.7863  -78.4591 H         1 UNK         0.0547 
    103 H103      -74.5958   21.9644  -77.6668 H         1 UNK         0.0837 
    104 H104      -73.3431   23.1620  -77.3402 H         1 UNK         0.0837 
    105 H105      -73.8916   22.8815  -78.9854 H         1 UNK         0.0837 
    106 H106      -76.8181   23.5745  -76.3861 H         1 UNK         0.3020 
    107 H107      -75.4709   23.2324  -73.3819 H         1 UNK         0.1245 
    108 H108      -76.7308   26.0077  -73.6389 H         1 UNK         0.0781 
    109 H109      -75.1909   25.6447  -72.8951 H         1 UNK         0.0781 
    110 H110      -75.3388   26.4167  -70.5499 H         1 UNK         0.0836 
    111 H111      -76.6923   26.2054  -69.4705 H         1 UNK         0.0836 
    112 H112      -78.1786   23.9740  -74.1777 H         1 UNK         0.3022 
    113 H113      -78.9983   20.7820  -75.4453 H         1 UNK         0.0747 
    114 H114      -79.2951   20.4343  -72.9972 H         1 UNK         0.0793 
    115 H115      -79.8757   22.0829  -72.8082 H         1 UNK         0.0793 
    116 H116      -80.8126   20.9153  -73.7402 H         1 UNK         0.0793 
    117 H117      -80.5328   23.1506  -74.9630 H         1 UNK         0.3047 
    118 H118      -79.8108   25.0278  -77.6041 H         1 UNK         0.0822 
    119 H119      -81.7300   24.4946  -79.1198 H         1 UNK         0.0807 
    120 H120      -81.7494   22.8376  -78.5161 H         1 UNK         0.0807 
    121 H121      -80.3578   23.4369  -79.4008 H         1 UNK         0.0807 
    122 H122      -81.2817   25.7102  -76.1456 H         1 UNK         0.2946 
    123 H123      -84.0645   25.4791  -75.2844 H         1 UNK         0.1144 
    124 H124      -84.4594   24.5909  -72.9633 H         1 UNK         0.0793 
    125 H125      -83.1987   23.3845  -73.2166 H         1 UNK         0.0793 
    126 H126      -84.6621   23.3513  -74.1882 H         1 UNK         0.0793 
    127 H127      -82.7206   26.9040  -74.2462 H         1 UNK         0.2896 
@<TRIPOS>BOND
     1    1    2 1    
     2    1   67 1    
     3    1   68 1    
     4    1   69 1    
     5    2    3 2    
     6    2    4 am   BACKBONE|DICT|INTERRES
     7    4    5 1    
     8    4   70 1    
     9    5    6 1    
    10    5   65 1    
    11    5   71 1    
    12    6    7 1    
    13    6   72 1    
    14    6   73 1    
    15    7    8 1    
    16    8    9 1    
    17    8   74 1    
    18    8   75 1    
    19    9   10 ar   
    20    9   14 ar   
    21   10   11 ar   
    22   10   76 1    
    23   11   12 ar   
    24   11   48 1    
    25   12   13 ar   
    26   12   77 1    
    27   13   14 ar   
    28   13   15 1    
    29   14   78 1    
    30   15   16 1    
    31   15   79 1    
    32   15   80 1    
    33   16   17 1    
    34   17   18 1    
    35   17   81 1    
    36   17   82 1    
    37   18   19 1    
    38   18   22 1    
    39   18   83 1    
    40   19   20 am   BACKBONE|DICT|INTERRES
    41   19   21 2    
    42   20   84 1    
    43   20   85 1    
    44   22   23 am   BACKBONE|DICT|INTERRES
    45   22   86 1    
    46   23   24 2    
    47   23   25 1    
    48   25   26 1    
    49   25   27 1    
    50   25   87 1    
    51   26   88 1    
    52   26   89 1    
    53   26   90 1    
    54   27   28 am   BACKBONE|DICT|INTERRES
    55   27   91 1    
    56   28   29 2    
    57   28   30 1    
    58   30   31 1    
    59   30   32 1    
    60   30   92 1    
    61   31   93 1    
    62   31   94 1    
    63   31   95 1    
    64   32   33 am   BACKBONE|DICT|INTERRES
    65   32   96 1    
    66   33   34 2    
    67   33   35 1    
    68   35   36 1    
    69   35   37 1    
    70   35   97 1    
    71   36   98 1    
    72   36   99 1    
    73   36  100 1    
    74   37   38 am   BACKBONE|DICT|INTERRES
    75   37  101 1    
    76   38   39 2    
    77   38   40 1    
    78   40   41 1    
    79   40   42 1    
    80   40  102 1    
    81   41  103 1    
    82   41  104 1    
    83   41  105 1    
    84   42   43 am   BACKBONE|DICT|INTERRES
    85   42  106 1    
    86   43   44 2    
    87   43   45 1    
    88   45   46 1    
    89   45   49 1    
    90   45  107 1    
    91   46   47 1    
    92   46  108 1    
    93   46  109 1    
    94   47   48 1    
    95   48  110 1    
    96   48  111 1    
    97   49   50 am   BACKBONE|DICT|INTERRES
    98   49  112 1    
    99   50   51 2    
   100   50   52 1    
   101   52   53 1    
   102   52   54 1    
   103   52  113 1    
   104   53  114 1    
   105   53  115 1    
   106   53  116 1    
   107   54   55 am   BACKBONE|DICT|INTERRES
   108   54  117 1    
   109   55   56 2    
   110   55   57 1    
   111   57   58 1    
   112   57   59 1    
   113   57  118 1    
   114   58  119 1    
   115   58  120 1    
   116   58  121 1    
   117   59   60 am   BACKBONE|DICT|INTERRES
   118   59  122 1    
   119   60   61 2    
   120   60   62 1    
   121   62   63 1    
   122   62   64 1    
   123   62  123 1    
   124   63  124 1    
   125   63  125 1    
   126   63  126 1    
   127   64   65 am   BACKBONE|DICT|INTERRES
   128   64  127 1    
   129   65   66 2    
@<TRIPOS>SUBSTRUCTURE
     1 UNK         1 GROUP             0       ****    0 ROOT    
