@<TRIPOS>MOLECULE
3R135
127   129    1
SMALL
USER_CHARGES


@<TRIPOS>ATOM
      1 CA        -84.0975   24.3645  -74.3624 C.3       0 UNK        -0.1998 
      2 C         -83.2405   25.6205  -74.3370 C.2       0 UNK         0.4909 
      3 O         -83.0150   26.2299  -75.3829 O.2       0 UNK        -0.5240 
      4 N         -82.7525   26.0155  -73.1535 N.am      1 UNK        -0.4739 
      5 CA        -81.8377   27.1484  -72.9780 C.3       1 UNK         0.0864 
      6 C6        -81.6922   27.5354  -71.4872 C.3       11 UNK        -0.0881 
      7 S7        -81.1883   29.2766  -71.2721 S.3       11 UNK        -0.2682 
      8 C8        -79.7217   29.1247  -70.2046 C.3       11 UNK         0.0289 
      9 C9        -78.4578   28.8209  -70.9964 C.ar      11 UNK        -0.0687 
     10 C10       -78.0274   27.5021  -71.1700 C.ar      11 UNK        -0.0823 
     11 C11       -76.8418   27.2222  -71.8576 C.ar      11 UNK        -0.0830 
     12 C12       -76.0781   28.2817  -72.3607 C.ar      11 UNK        -0.1021 
     13 C13       -76.4995   29.6043  -72.1981 C.ar      11 UNK        -0.0753 
     14 C14       -77.6929   29.8676  -71.5200 C.ar      11 UNK        -0.0933 
     15 C15       -75.6535   30.7475  -72.7358 C.3       11 UNK         0.0166 
     16 S16       -74.3500   31.1918  -71.5487 S.3       11 UNK        -0.2615 
     17 C17       -73.6043   32.6509  -72.3554 C.3       11 UNK        -0.0865 
     18 CA        -72.6159   32.3116  -73.5049 C.3       10 UNK         0.0862 
     19 C         -71.9860   33.6120  -74.0855 C.2       10 UNK         0.5551 
     20 N         -70.6792   33.8217  -73.9844 N.am      10 UNK        -0.7319 
     21 O         -72.7005   34.4450  -74.6377 O.2       10 UNK        -0.5018 
     22 N         -71.6580   31.2605  -73.1204 N.am      10 UNK        -0.4509 
     23 C         -70.9382   30.5269  -73.9783 C.2       10 UNK         0.4899 
     24 O         -70.9163   30.7230  -75.1944 O.2       10 UNK        -0.4839 
     25 CA        -70.1048   29.3627  -73.4001 C.3       9 UNK         0.0222 
     26 CB        -70.1778   29.2227  -71.8610 C.3       9 UNK        -0.1966 
     27 N         -70.4453   28.0926  -74.0559 N.am      9 UNK        -0.4218 
     28 C         -71.6578   27.5205  -74.1024 C.2       9 UNK         0.5020 
     29 O         -72.6507   27.9472  -73.5093 O.2       9 UNK        -0.5274 
     30 CA        -71.7873   26.2410  -74.9442 C.3       8 UNK         0.0270 
     31 CB        -71.8520   25.0013  -74.0383 C.3       8 UNK        -0.1976 
     32 N         -72.9961   26.3088  -75.7662 N.am      8 UNK        -0.4313 
     33 C         -73.1163   27.0832  -76.8526 C.2       8 UNK         0.5041 
     34 O         -72.1753   27.7020  -77.3549 O.2       8 UNK        -0.5577 
     35 CA        -74.5242   27.1856  -77.4680 C.3       7 UNK         0.0284 
     36 CB        -74.5553   27.9831  -78.7891 C.3       7 UNK        -0.1958 
     37 N         -75.1784   25.8850  -77.6350 N.am      7 UNK        -0.4454 
     38 C         -74.7655   24.8367  -78.3617 C.2       7 UNK         0.5089 
     39 O         -73.7197   24.8095  -79.0131 O.2       7 UNK        -0.5125 
     40 CA        -75.7073   23.6152  -78.3509 C.3       6 UNK         0.0408 
     41 CB        -75.1222   22.3842  -79.0751 C.3       6 UNK        -0.1791 
     42 N         -76.1557   23.2722  -76.9960 N.am      6 UNK        -0.4762 
     43 C         -75.3947   22.8873  -75.9588 C.2       6 UNK         0.5007 
     44 O         -74.1821   22.6887  -76.0386 O.2       6 UNK        -0.5032 
     45 CA        -76.0918   22.6996  -74.5936 C.3       5 UNK         0.0783 
     46 C46       -75.4527   23.5850  -73.4944 C.3       11 UNK        -0.0857 
     47 S47       -75.7875   25.3718  -73.6841 S.3       11 UNK        -0.2512 
     48 C48       -76.3805   25.7764  -72.0081 C.3       11 UNK         0.0225 
     49 N         -77.5450   22.8932  -74.6726 N.am      5 UNK        -0.4615 
     50 C         -78.4387   21.9079  -74.8272 C.2       4 UNK         0.5053 
     51 O         -78.1410   20.7151  -74.8907 O.2       4 UNK        -0.5105 
     52 CA        -79.9149   22.3212  -74.9457 C.3       4 UNK         0.0263 
     53 CB        -80.5575   22.4388  -73.5543 C.3       4 UNK        -0.1981 
     54 N         -80.0885   23.5746  -75.6861 N.am      4 UNK        -0.4224 
     55 C         -79.9366   23.6811  -77.0168 C.2       3 UNK         0.4895 
     56 O         -79.6541   22.7297  -77.7449 O.2       3 UNK        -0.5091 
     57 CA        -80.1072   25.0705  -77.6585 C.3       3 UNK         0.0250 
     58 CB        -81.4866   25.1933  -78.3248 C.3       3 UNK        -0.1996 
     59 N         -79.9111   26.1766  -76.7188 N.am      3 UNK        -0.4254 
     60 C         -78.7206   26.5068  -76.1973 C.2       2 UNK         0.5004 
     61 O         -77.6762   25.9286  -76.4910 O.2       2 UNK        -0.5226 
     62 CA        -78.6837   27.6291  -75.1449 C.3       2 UNK         0.0269 
     63 CB        -78.2919   28.9684  -75.7867 C.3       2 UNK        -0.1926 
     64 N         -79.9364   27.7874  -74.3995 N.am      2 UNK        -0.4687 
     65 C         -80.4775   26.8331  -73.6305 C.2       1 UNK         0.5165 
     66 O         -79.9648   25.7241  -73.4586 O.2       1 UNK        -0.5079 
     67 H67       -83.6631   23.6296  -75.0397 H         1 UNK         0.0900 
     68 H68       -84.1829   23.9089  -73.3761 H         1 UNK         0.0900 
     69 H69       -85.1004   24.6026  -74.7155 H         1 UNK         0.0900 
     70 H70       -82.9410   25.4661  -72.3273 H         1 UNK         0.2959 
     71 H71       -82.2870   27.9915  -73.5086 H         1 UNK         0.1079 
     72 H72       -81.0143   26.8591  -70.9637 H         1 UNK         0.0837 
     73 H73       -82.6543   27.4329  -70.9823 H         1 UNK         0.0837 
     74 H74       -79.8920   28.3636  -69.4416 H         1 UNK         0.0685 
     75 H75       -79.5919   30.0631  -69.6632 H         1 UNK         0.0685 
     76 H76       -78.6135   26.6908  -70.7613 H         1 UNK         0.1434 
     77 H77       -75.1480   28.0789  -72.8734 H         1 UNK         0.1329 
     78 H78       -78.0174   30.8899  -71.3818 H         1 UNK         0.1335 
     79 H79       -75.1979   30.4581  -73.6842 H         1 UNK         0.0680 
     80 H80       -76.2786   31.6181  -72.9402 H         1 UNK         0.0680 
     81 H81       -74.4054   33.2981  -72.7183 H         1 UNK         0.1032 
     82 H82       -73.0909   33.2226  -71.5799 H         1 UNK         0.1032 
     83 H83       -73.2122   31.8935  -74.3183 H         1 UNK         0.0461 
     84 H84       -70.2808   34.6654  -74.3654 H         1 UNK         0.3453 
     85 H85       -70.0885   33.1389  -73.5378 H         1 UNK         0.3453 
     86 H86       -71.6406   31.0183  -72.1410 H         1 UNK         0.2984 
     87 H87       -69.0670   29.5747  -73.6609 H         1 UNK         0.0554 
     88 H88       -69.8229   30.1262  -71.3635 H         1 UNK         0.0847 
     89 H89       -69.5471   28.4040  -71.5142 H         1 UNK         0.0847 
     90 H90       -71.1915   29.0243  -71.5102 H         1 UNK         0.0847 
     91 H91       -69.7043   27.6765  -74.6031 H         1 UNK         0.3141 
     92 H92       -70.9221   26.1444  -75.6038 H         1 UNK         0.0743 
     93 H93       -72.6541   25.0830  -73.3039 H         1 UNK         0.0784 
     94 H94       -70.9200   24.8753  -73.4861 H         1 UNK         0.0784 
     95 H95       -72.0141   24.0914  -74.6169 H         1 UNK         0.0784 
     96 H96       -73.8238   25.8648  -75.3927 H         1 UNK         0.3213 
     97 H97       -75.1269   27.7334  -76.7420 H         1 UNK         0.0855 
     98 H98       -73.9465   27.5111  -79.5609 H         1 UNK         0.0814 
     99 H99       -74.1707   28.9934  -78.6442 H         1 UNK         0.0814 
    100 H100      -75.5715   28.0760  -79.1719 H         1 UNK         0.0814 
    101 H101      -76.0732   25.7917  -77.1493 H         1 UNK         0.3105 
    102 H102      -76.6030   23.9184  -78.8954 H         1 UNK         0.0547 
    103 H103      -75.8201   21.5473  -79.0617 H         1 UNK         0.0837 
    104 H104      -74.1878   22.0505  -78.6233 H         1 UNK         0.0837 
    105 H105      -74.9110   22.6129  -80.1203 H         1 UNK         0.0837 
    106 H106      -77.1355   23.4353  -76.8098 H         1 UNK         0.3020 
    107 H107      -75.8888   21.6629  -74.3143 H         1 UNK         0.1245 
    108 H108      -74.3733   23.4325  -73.4544 H         1 UNK         0.0781 
    109 H109      -75.8201   23.2524  -72.5227 H         1 UNK         0.0781 
    110 H110      -75.5813   25.5864  -71.2905 H         1 UNK         0.0836 
    111 H111      -77.1969   25.0956  -71.7602 H         1 UNK         0.0836 
    112 H112      -77.8662   23.8505  -74.6177 H         1 UNK         0.3022 
    113 H113      -80.4382   21.5314  -75.4894 H         1 UNK         0.0747 
    114 H114      -81.6059   22.7274  -73.6213 H         1 UNK         0.0793 
    115 H115      -80.5177   21.4840  -73.0284 H         1 UNK         0.0793 
    116 H116      -80.0457   23.1713  -72.9296 H         1 UNK         0.0793 
    117 H117      -80.2704   24.4074  -75.1375 H         1 UNK         0.3047 
    118 H118      -79.3492   25.1596  -78.4402 H         1 UNK         0.0822 
    119 H119      -81.6144   26.1648  -78.8024 H         1 UNK         0.0807 
    120 H120      -82.2971   25.0602  -77.6084 H         1 UNK         0.0807 
    121 H121      -81.6125   24.4342  -79.0980 H         1 UNK         0.0807 
    122 H122      -80.7382   26.6691  -76.4077 H         1 UNK         0.2946 
    123 H123      -77.9082   27.3578  -74.4278 H         1 UNK         0.1144 
    124 H124      -78.1482   29.7404  -75.0302 H         1 UNK         0.0793 
    125 H125      -79.0495   29.3180  -76.4888 H         1 UNK         0.0793 
    126 H126      -77.3537   28.8786  -76.3358 H         1 UNK         0.0793 
    127 H127      -80.4077   28.6765  -74.4854 H         1 UNK         0.2896 
@<TRIPOS>BOND
     1    1    2 1    
     2    1   67 1    
     3    1   68 1    
     4    1   69 1    
     5    2    3 2    
     6    2    4 am   BACKBONE|DICT|INTERRES
     7    4    5 1    
     8    4   70 1    
     9    5    6 1    
    10    5   65 1    
    11    5   71 1    
    12    6    7 1    
    13    6   72 1    
    14    6   73 1    
    15    7    8 1    
    16    8    9 1    
    17    8   74 1    
    18    8   75 1    
    19    9   10 ar   
    20    9   14 ar   
    21   10   11 ar   
    22   10   76 1    
    23   11   12 ar   
    24   11   48 1    
    25   12   13 ar   
    26   12   77 1    
    27   13   14 ar   
    28   13   15 1    
    29   14   78 1    
    30   15   16 1    
    31   15   79 1    
    32   15   80 1    
    33   16   17 1    
    34   17   18 1    
    35   17   81 1    
    36   17   82 1    
    37   18   19 1    
    38   18   22 1    
    39   18   83 1    
    40   19   20 am   BACKBONE|DICT|INTERRES
    41   19   21 2    
    42   20   84 1    
    43   20   85 1    
    44   22   23 am   BACKBONE|DICT|INTERRES
    45   22   86 1    
    46   23   24 2    
    47   23   25 1    
    48   25   26 1    
    49   25   27 1    
    50   25   87 1    
    51   26   88 1    
    52   26   89 1    
    53   26   90 1    
    54   27   28 am   BACKBONE|DICT|INTERRES
    55   27   91 1    
    56   28   29 2    
    57   28   30 1    
    58   30   31 1    
    59   30   32 1    
    60   30   92 1    
    61   31   93 1    
    62   31   94 1    
    63   31   95 1    
    64   32   33 am   BACKBONE|DICT|INTERRES
    65   32   96 1    
    66   33   34 2    
    67   33   35 1    
    68   35   36 1    
    69   35   37 1    
    70   35   97 1    
    71   36   98 1    
    72   36   99 1    
    73   36  100 1    
    74   37   38 am   BACKBONE|DICT|INTERRES
    75   37  101 1    
    76   38   39 2    
    77   38   40 1    
    78   40   41 1    
    79   40   42 1    
    80   40  102 1    
    81   41  103 1    
    82   41  104 1    
    83   41  105 1    
    84   42   43 am   BACKBONE|DICT|INTERRES
    85   42  106 1    
    86   43   44 2    
    87   43   45 1    
    88   45   46 1    
    89   45   49 1    
    90   45  107 1    
    91   46   47 1    
    92   46  108 1    
    93   46  109 1    
    94   47   48 1    
    95   48  110 1    
    96   48  111 1    
    97   49   50 am   BACKBONE|DICT|INTERRES
    98   49  112 1    
    99   50   51 2    
   100   50   52 1    
   101   52   53 1    
   102   52   54 1    
   103   52  113 1    
   104   53  114 1    
   105   53  115 1    
   106   53  116 1    
   107   54   55 am   BACKBONE|DICT|INTERRES
   108   54  117 1    
   109   55   56 2    
   110   55   57 1    
   111   57   58 1    
   112   57   59 1    
   113   57  118 1    
   114   58  119 1    
   115   58  120 1    
   116   58  121 1    
   117   59   60 am   BACKBONE|DICT|INTERRES
   118   59  122 1    
   119   60   61 2    
   120   60   62 1    
   121   62   63 1    
   122   62   64 1    
   123   62  123 1    
   124   63  124 1    
   125   63  125 1    
   126   63  126 1    
   127   64   65 am   BACKBONE|DICT|INTERRES
   128   64  127 1    
   129   65   66 2    
@<TRIPOS>SUBSTRUCTURE
     1 UNK         1 GROUP             0       ****    0 ROOT    
