@<TRIPOS>MOLECULE
3R135
127   129    1
SMALL
USER_CHARGES


@<TRIPOS>ATOM
      1 CA        -79.9368   31.9474  -77.7295 C.3       0 UNK        -0.1998 
      2 C         -79.1786   30.8077  -77.0659 C.2       0 UNK         0.4909 
      3 O         -77.9928   30.6195  -77.3381 O.2       0 UNK        -0.5240 
      4 N         -79.8528   30.0434  -76.2022 N.am      1 UNK        -0.4739 
      5 CA        -79.2930   28.9073  -75.4737 C.3       1 UNK         0.0864 
      6 C6        -78.4195   29.3200  -74.2573 C.3       11 UNK        -0.0881 
      7 S7        -79.1885   30.5322  -73.1239 S.3       11 UNK        -0.2682 
      8 C8        -79.8079   29.4808  -71.7716 C.3       11 UNK         0.0289 
      9 C9        -78.6986   28.7159  -71.0618 C.ar      11 UNK        -0.0687 
     10 C10       -78.7098   27.3196  -71.0519 C.ar      11 UNK        -0.0823 
     11 C11       -77.7058   26.6044  -70.3944 C.ar      11 UNK        -0.0830 
     12 C12       -76.6922   27.2981  -69.7273 C.ar      11 UNK        -0.1021 
     13 C13       -76.6497   28.6971  -69.7552 C.ar      11 UNK        -0.0753 
     14 C14       -77.6655   29.3982  -70.4128 C.ar      11 UNK        -0.0933 
     15 C15       -75.5224   29.4708  -69.0774 C.3       11 UNK         0.0166 
     16 S16       -73.8526   28.7805  -69.3535 S.3       11 UNK        -0.2615 
     17 C17       -73.7612   28.5701  -71.1681 C.3       11 UNK        -0.0865 
     18 CA        -73.7986   29.8726  -72.0130 C.3       10 UNK         0.0862 
     19 C         -72.5104   30.7372  -71.8342 C.2       10 UNK         0.5551 
     20 N         -71.6259   30.8371  -72.8212 N.am      10 UNK        -0.7319 
     21 O         -72.3183   31.3513  -70.7883 O.2       10 UNK        -0.5018 
     22 N         -74.1150   29.5382  -73.4094 N.am      10 UNK        -0.4509 
     23 C         -74.4710   30.4091  -74.3626 C.2       10 UNK         0.4899 
     24 O         -74.7202   31.5960  -74.1490 O.2       10 UNK        -0.4839 
     25 CA        -74.5366   29.8463  -75.7986 C.3       9 UNK         0.0222 
     26 CB        -74.3798   30.9358  -76.8785 C.3       9 UNK        -0.1966 
     27 N         -73.5908   28.7436  -76.0251 N.am      9 UNK        -0.4218 
     28 C         -72.2519   28.7728  -75.9226 C.2       9 UNK         0.5020 
     29 O         -71.6078   29.7828  -75.6377 O.2       9 UNK        -0.5274 
     30 CA        -71.5029   27.4425  -76.1097 C.3       8 UNK         0.0270 
     31 CB        -71.1883   26.8233  -74.7368 C.3       8 UNK        -0.1976 
     32 N         -72.2763   26.4797  -76.8978 N.am      8 UNK        -0.4313 
     33 C         -72.0948   26.2287  -78.2018 C.2       8 UNK         0.5041 
     34 O         -71.1976   26.7307  -78.8802 O.2       8 UNK        -0.5577 
     35 CA        -73.0872   25.2565  -78.8707 C.3       7 UNK         0.0284 
     36 CB        -72.5662   23.8127  -78.7863 C.3       7 UNK        -0.1958 
     37 N         -74.4334   25.3213  -78.2938 N.am      7 UNK        -0.4454 
     38 C         -75.2472   26.3826  -78.3810 C.2       7 UNK         0.5089 
     39 O         -74.9961   27.3802  -79.0561 O.2       7 UNK        -0.5125 
     40 CA        -76.5408   26.3544  -77.5444 C.3       6 UNK         0.0408 
     41 CB        -77.7506   26.0319  -78.4359 C.3       6 UNK        -0.1791 
     42 N         -76.5347   25.4442  -76.3888 N.am      6 UNK        -0.4762 
     43 C         -75.6718   25.4783  -75.3624 C.2       6 UNK         0.5007 
     44 O         -74.7019   26.2363  -75.3337 O.2       6 UNK        -0.5032 
     45 CA        -75.9022   24.5369  -74.1665 C.3       5 UNK         0.0783 
     46 C46       -76.4492   25.3420  -72.9628 C.3       11 UNK        -0.0857 
     47 S47       -76.3114   24.4165  -71.3960 S.3       11 UNK        -0.2512 
     48 C48       -77.7057   25.0821  -70.4283 C.3       11 UNK         0.0225 
     49 N         -76.7753   23.3993  -74.4898 N.am      5 UNK        -0.4615 
     50 C         -76.4256   22.1135  -74.3465 C.2       4 UNK         0.5053 
     51 O         -75.2737   21.7471  -74.1099 O.2       4 UNK        -0.5105 
     52 CA        -77.5307   21.0411  -74.4285 C.3       4 UNK         0.0263 
     53 CB        -77.7812   20.4419  -73.0336 C.3       4 UNK        -0.1981 
     54 N         -78.8048   21.5433  -74.9489 N.am      4 UNK        -0.4224 
     55 C         -79.1677   21.5103  -76.2378 C.2       3 UNK         0.4895 
     56 O         -78.4763   21.0204  -77.1314 O.2       3 UNK        -0.5091 
     57 CA        -80.5276   22.1429  -76.6049 C.3       3 UNK         0.0250 
     58 CB        -81.6262   21.0672  -76.6202 C.3       3 UNK        -0.1996 
     59 N         -80.9694   23.2721  -75.7685 N.am      3 UNK        -0.4254 
     60 C         -80.2424   24.3644  -75.5018 C.2       2 UNK         0.5004 
     61 O         -79.0535   24.4765  -75.8084 O.2       2 UNK        -0.5226 
     62 CA        -80.9209   25.5112  -74.7423 C.3       2 UNK         0.0269 
     63 CB        -81.1038   25.1552  -73.2580 C.3       2 UNK        -0.1926 
     64 N         -80.0452   26.6749  -74.8661 N.am      2 UNK        -0.4687 
     65 C         -80.4246   27.9314  -75.1097 C.2       1 UNK         0.5165 
     66 O         -81.5965   28.3177  -75.0825 O.2       1 UNK        -0.5079 
     67 H67       -79.4593   32.8991  -77.4979 H         1 UNK         0.0900 
     68 H68       -80.9726   31.9971  -77.3940 H         1 UNK         0.0900 
     69 H69       -79.9356   31.8191  -78.8115 H         1 UNK         0.0900 
     70 H70       -80.8373   30.1991  -76.0229 H         1 UNK         0.2959 
     71 H71       -78.6525   28.3656  -76.1729 H         1 UNK         0.1079 
     72 H72       -77.5088   29.7893  -74.6285 H         1 UNK         0.0837 
     73 H73       -78.0767   28.4441  -73.7051 H         1 UNK         0.0837 
     74 H74       -80.3205   30.1121  -71.0448 H         1 UNK         0.0685 
     75 H75       -80.5620   28.8000  -72.1696 H         1 UNK         0.0685 
     76 H76       -79.5002   26.7900  -71.5622 H         1 UNK         0.1434 
     77 H77       -75.9146   26.7448  -69.2186 H         1 UNK         0.1329 
     78 H78       -77.6519   30.4795  -70.4307 H         1 UNK         0.1335 
     79 H79       -75.7145   29.4934  -68.0041 H         1 UNK         0.0680 
     80 H80       -75.5192   30.5106  -69.4076 H         1 UNK         0.0680 
     81 H81       -74.5841   27.9167  -71.4595 H         1 UNK         0.1032 
     82 H82       -72.8559   28.0040  -71.3952 H         1 UNK         0.1032 
     83 H83       -74.6290   30.4821  -71.6536 H         1 UNK         0.0461 
     84 H84       -71.7751   30.3881  -73.7176 H         1 UNK         0.3453 
     85 H85       -70.8082   31.4093  -72.6844 H         1 UNK         0.3453 
     86 H86       -73.9325   28.5867  -73.6905 H         1 UNK         0.2984 
     87 H87       -75.5311   29.4141  -75.9133 H         1 UNK         0.0554 
     88 H88       -74.4388   30.5095  -77.8800 H         1 UNK         0.0847 
     89 H89       -73.4289   31.4620  -76.7901 H         1 UNK         0.0847 
     90 H90       -75.1741   31.6793  -76.7994 H         1 UNK         0.0847 
     91 H91       -74.0204   27.8325  -76.1472 H         1 UNK         0.3141 
     92 H92       -70.5570   27.6645  -76.6082 H         1 UNK         0.0743 
     93 H93       -72.0957   26.5770  -74.1836 H         1 UNK         0.0784 
     94 H94       -70.6026   25.9099  -74.8413 H         1 UNK         0.0784 
     95 H95       -70.6066   27.5110  -74.1210 H         1 UNK         0.0784 
     96 H96       -73.0606   26.0436  -76.4245 H         1 UNK         0.3213 
     97 H97       -73.1591   25.5339  -79.9249 H         1 UNK         0.0855 
     98 H98       -72.4896   23.4685  -77.7541 H         1 UNK         0.0814 
     99 H99       -71.5733   23.7310  -79.2311 H         1 UNK         0.0814 
    100 H100      -73.2172   23.1232  -79.3241 H         1 UNK         0.0814 
    101 H101      -74.7358   24.5385  -77.7322 H         1 UNK         0.3105 
    102 H102      -76.6733   27.3647  -77.1530 H         1 UNK         0.0547 
    103 H103      -77.7231   25.0021  -78.7939 H         1 UNK         0.0837 
    104 H104      -78.6894   26.1758  -77.9017 H         1 UNK         0.0837 
    105 H105      -77.7793   26.6825  -79.3113 H         1 UNK         0.0837 
    106 H106      -77.3429   24.8306  -76.3126 H         1 UNK         0.3020 
    107 H107      -74.9056   24.1780  -73.8988 H         1 UNK         0.1245 
    108 H108      -75.9018   26.2772  -72.8272 H         1 UNK         0.0781 
    109 H109      -77.4907   25.6185  -73.1352 H         1 UNK         0.0781 
    110 H110      -78.6390   24.6996  -70.8431 H         1 UNK         0.0836 
    111 H111      -77.6454   24.6982  -69.4090 H         1 UNK         0.0836 
    112 H112      -77.7237   23.6244  -74.7723 H         1 UNK         0.3022 
    113 H113      -77.1600   20.2429  -75.0752 H         1 UNK         0.0747 
    114 H114      -78.5241   19.6449  -73.0710 H         1 UNK         0.0793 
    115 H115      -76.8674   20.0104  -72.6224 H         1 UNK         0.0793 
    116 H116      -78.1305   21.1960  -72.3268 H         1 UNK         0.0793 
    117 H117      -79.4380   21.9625  -74.2836 H         1 UNK         0.3047 
    118 H118      -80.4230   22.5308  -77.6203 H         1 UNK         0.0822 
    119 H119      -82.5637   21.4605  -77.0136 H         1 UNK         0.0807 
    120 H120      -81.8185   20.6733  -75.6215 H         1 UNK         0.0807 
    121 H121      -81.3417   20.2251  -77.2532 H         1 UNK         0.0807 
    122 H122      -81.9295   23.2442  -75.4553 H         1 UNK         0.2946 
    123 H123      -81.8897   25.7135  -75.2054 H         1 UNK         0.1144 
    124 H124      -81.5151   25.9956  -72.6987 H         1 UNK         0.0793 
    125 H125      -80.1606   24.8662  -72.7941 H         1 UNK         0.0793 
    126 H126      -81.7953   24.3207  -73.1362 H         1 UNK         0.0793 
    127 H127      -79.0746   26.4213  -74.9960 H         1 UNK         0.2896 
@<TRIPOS>BOND
     1    1    2 1    
     2    1   67 1    
     3    1   68 1    
     4    1   69 1    
     5    2    3 2    
     6    2    4 am   BACKBONE|DICT|INTERRES
     7    4    5 1    
     8    4   70 1    
     9    5    6 1    
    10    5   65 1    
    11    5   71 1    
    12    6    7 1    
    13    6   72 1    
    14    6   73 1    
    15    7    8 1    
    16    8    9 1    
    17    8   74 1    
    18    8   75 1    
    19    9   10 ar   
    20    9   14 ar   
    21   10   11 ar   
    22   10   76 1    
    23   11   12 ar   
    24   11   48 1    
    25   12   13 ar   
    26   12   77 1    
    27   13   14 ar   
    28   13   15 1    
    29   14   78 1    
    30   15   16 1    
    31   15   79 1    
    32   15   80 1    
    33   16   17 1    
    34   17   18 1    
    35   17   81 1    
    36   17   82 1    
    37   18   19 1    
    38   18   22 1    
    39   18   83 1    
    40   19   20 am   BACKBONE|DICT|INTERRES
    41   19   21 2    
    42   20   84 1    
    43   20   85 1    
    44   22   23 am   BACKBONE|DICT|INTERRES
    45   22   86 1    
    46   23   24 2    
    47   23   25 1    
    48   25   26 1    
    49   25   27 1    
    50   25   87 1    
    51   26   88 1    
    52   26   89 1    
    53   26   90 1    
    54   27   28 am   BACKBONE|DICT|INTERRES
    55   27   91 1    
    56   28   29 2    
    57   28   30 1    
    58   30   31 1    
    59   30   32 1    
    60   30   92 1    
    61   31   93 1    
    62   31   94 1    
    63   31   95 1    
    64   32   33 am   BACKBONE|DICT|INTERRES
    65   32   96 1    
    66   33   34 2    
    67   33   35 1    
    68   35   36 1    
    69   35   37 1    
    70   35   97 1    
    71   36   98 1    
    72   36   99 1    
    73   36  100 1    
    74   37   38 am   BACKBONE|DICT|INTERRES
    75   37  101 1    
    76   38   39 2    
    77   38   40 1    
    78   40   41 1    
    79   40   42 1    
    80   40  102 1    
    81   41  103 1    
    82   41  104 1    
    83   41  105 1    
    84   42   43 am   BACKBONE|DICT|INTERRES
    85   42  106 1    
    86   43   44 2    
    87   43   45 1    
    88   45   46 1    
    89   45   49 1    
    90   45  107 1    
    91   46   47 1    
    92   46  108 1    
    93   46  109 1    
    94   47   48 1    
    95   48  110 1    
    96   48  111 1    
    97   49   50 am   BACKBONE|DICT|INTERRES
    98   49  112 1    
    99   50   51 2    
   100   50   52 1    
   101   52   53 1    
   102   52   54 1    
   103   52  113 1    
   104   53  114 1    
   105   53  115 1    
   106   53  116 1    
   107   54   55 am   BACKBONE|DICT|INTERRES
   108   54  117 1    
   109   55   56 2    
   110   55   57 1    
   111   57   58 1    
   112   57   59 1    
   113   57  118 1    
   114   58  119 1    
   115   58  120 1    
   116   58  121 1    
   117   59   60 am   BACKBONE|DICT|INTERRES
   118   59  122 1    
   119   60   61 2    
   120   60   62 1    
   121   62   63 1    
   122   62   64 1    
   123   62  123 1    
   124   63  124 1    
   125   63  125 1    
   126   63  126 1    
   127   64   65 am   BACKBONE|DICT|INTERRES
   128   64  127 1    
   129   65   66 2    
@<TRIPOS>SUBSTRUCTURE
     1 UNK         1 GROUP             0       ****    0 ROOT    
