@<TRIPOS>MOLECULE
3R135
127   129    1
SMALL
USER_CHARGES


@<TRIPOS>ATOM
      1 CA        -76.4736   25.9313  -73.3325 C.3       0 UNK        -0.1998 
      2 C         -77.5966   25.0205  -72.8668 C.2       0 UNK         0.4909 
      3 O         -77.5183   23.8037  -73.0406 O.2       0 UNK        -0.5240 
      4 N         -78.6292   25.5981  -72.2410 N.am      1 UNK        -0.4739 
      5 CA        -79.7653   24.8645  -71.6813 C.3       1 UNK         0.0864 
      6 C6        -80.5275   25.6965  -70.6201 C.3       11 UNK        -0.0881 
      7 S7        -81.2399   27.2690  -71.2245 S.3       11 UNK        -0.2682 
      8 C8        -80.2022   28.5301  -70.4145 C.3       11 UNK         0.0289 
      9 C9        -79.1384   29.0866  -71.3506 C.ar      11 UNK        -0.0687 
     10 C10       -79.5191   29.9160  -72.4100 C.ar      11 UNK        -0.0823 
     11 C11       -78.5590   30.4915  -73.2459 C.ar      11 UNK        -0.0830 
     12 C12       -77.2061   30.2275  -73.0206 C.ar      11 UNK        -0.1021 
     13 C13       -76.8103   29.4025  -71.9639 C.ar      11 UNK        -0.0753 
     14 C14       -77.7802   28.8289  -71.1331 C.ar      11 UNK        -0.0933 
     15 C15       -75.3304   29.1581  -71.7170 C.3       11 UNK         0.0166 
     16 S16       -74.5514   30.6275  -70.9792 S.3       11 UNK        -0.2615 
     17 C17       -72.8147   30.0941  -70.8183 C.3       11 UNK        -0.0865 
     18 CA        -71.8908   30.7289  -71.8914 C.3       10 UNK         0.0862 
     19 C         -70.4011   30.4639  -71.5406 C.2       10 UNK         0.5551 
     20 N         -69.6801   31.4738  -71.0738 N.am      10 UNK        -0.7319 
     21 O         -69.9151   29.3394  -71.6390 O.2       10 UNK        -0.5018 
     22 N         -72.2370   30.2510  -73.2372 N.am      10 UNK        -0.4509 
     23 C         -71.7072   30.6821  -74.3903 C.2       10 UNK         0.4899 
     24 O         -70.9242   31.6296  -74.4739 O.2       10 UNK        -0.4839 
     25 CA        -72.1467   29.9274  -75.6648 C.3       9 UNK         0.0222 
     26 CB        -71.1670   30.1036  -76.8444 C.3       9 UNK        -0.1966 
     27 N         -72.4350   28.5064  -75.4207 N.am      9 UNK        -0.4218 
     28 C         -71.5769   27.5748  -74.9700 C.2       9 UNK         0.5020 
     29 O         -70.3727   27.7694  -74.8052 O.2       9 UNK        -0.5274 
     30 CA        -72.1543   26.1996  -74.6114 C.3       8 UNK         0.0270 
     31 CB        -72.7930   26.2359  -73.2134 C.3       8 UNK        -0.1976 
     32 N         -73.1369   25.7407  -75.5958 N.am      8 UNK        -0.4313 
     33 C         -73.0948   24.5497  -76.2105 C.2       8 UNK         0.5041 
     34 O         -72.2548   23.6812  -75.9687 O.2       8 UNK        -0.5577 
     35 CA        -74.1610   24.2645  -77.2852 C.3       7 UNK         0.0284 
     36 CB        -75.2446   23.3262  -76.7331 C.3       7 UNK        -0.1958 
     37 N         -74.7859   25.4778  -77.8204 N.am      7 UNK        -0.4454 
     38 C         -74.1511   26.3591  -78.6093 C.2       7 UNK         0.5089 
     39 O         -73.0016   26.1943  -79.0186 O.2       7 UNK        -0.5125 
     40 CA        -74.8916   27.6516  -79.0018 C.3       6 UNK         0.0408 
     41 CB        -75.3062   27.6008  -80.4812 C.3       6 UNK        -0.1791 
     42 N         -76.0705   27.9666  -78.1917 N.am      6 UNK        -0.4762 
     43 C         -76.0848   28.2226  -76.8759 C.2       6 UNK         0.5007 
     44 O         -75.0932   28.1577  -76.1454 O.2       6 UNK        -0.5032 
     45 CA        -77.4650   28.5480  -76.2746 C.3       5 UNK         0.0783 
     46 C46       -77.8158   30.0342  -76.5338 C.3       11 UNK        -0.0857 
     47 S47       -79.4472   30.5126  -75.8686 S.3       11 UNK        -0.2512 
     48 C48       -78.9874   31.4270  -74.3658 C.3       11 UNK         0.0225 
     49 N         -78.5346   27.6437  -76.7231 N.am      5 UNK        -0.4615 
     50 C         -78.5082   26.3045  -76.7184 C.2       4 UNK         0.5053 
     51 O         -77.5027   25.6394  -76.4683 O.2       4 UNK        -0.5105 
     52 CA        -79.8420   25.6164  -77.0421 C.3       4 UNK         0.0263 
     53 CB        -80.1902   25.7064  -78.5426 C.3       4 UNK        -0.1981 
     54 N         -79.8888   24.2437  -76.5244 N.am      4 UNK        -0.4224 
     55 C         -79.3379   23.1229  -77.0209 C.2       3 UNK         0.4895 
     56 O         -78.7682   23.0533  -78.1107 O.2       3 UNK        -0.5091 
     57 CA        -79.4351   21.8408  -76.1642 C.3       3 UNK         0.0250 
     58 CB        -78.0367   21.3119  -75.8034 C.3       3 UNK        -0.1996 
     59 N         -80.1993   22.0164  -74.9264 N.am      3 UNK        -0.4254 
     60 C         -81.5368   22.0446  -74.8427 C.2       2 UNK         0.5004 
     61 O         -82.2840   21.8249  -75.7962 O.2       2 UNK        -0.5226 
     62 CA        -82.1508   22.4070  -73.4753 C.3       2 UNK         0.0269 
     63 CB        -82.6870   21.1463  -72.7773 C.3       2 UNK        -0.1926 
     64 N         -81.2425   23.1120  -72.5589 N.am      2 UNK        -0.4687 
     65 C         -80.6875   24.3114  -72.7890 C.2       1 UNK         0.5165 
     66 O         -80.8699   24.9549  -73.8259 O.2       1 UNK        -0.5079 
     67 H67       -76.0367   25.5644  -74.2600 H         1 UNK         0.0900 
     68 H68       -75.6941   25.9599  -72.5735 H         1 UNK         0.0900 
     69 H69       -76.8278   26.9457  -73.5017 H         1 UNK         0.0900 
     70 H70       -78.6843   26.6046  -72.1666 H         1 UNK         0.2959 
     71 H71       -79.3487   24.0003  -71.1580 H         1 UNK         0.1079 
     72 H72       -79.8623   25.8963  -69.7793 H         1 UNK         0.0837 
     73 H73       -81.3420   25.1045  -70.1983 H         1 UNK         0.0837 
     74 H74       -79.7559   28.1379  -69.4999 H         1 UNK         0.0685 
     75 H75       -80.8483   29.3501  -70.0978 H         1 UNK         0.0685 
     76 H76       -80.5678   30.1242  -72.5750 H         1 UNK         0.1434 
     77 H77       -76.4550   30.6808  -73.6532 H         1 UNK         0.1329 
     78 H78       -77.4766   28.2033  -70.3047 H         1 UNK         0.1335 
     79 H79       -75.1841   28.2975  -71.0622 H         1 UNK         0.0680 
     80 H80       -74.8440   28.9230  -72.6638 H         1 UNK         0.0680 
     81 H81       -72.7501   29.0044  -70.8421 H         1 UNK         0.1032 
     82 H82       -72.4872   30.3876  -69.8187 H         1 UNK         0.1032 
     83 H83       -72.0557   31.8085  -71.8848 H         1 UNK         0.0461 
     84 H84       -70.0749   32.3972  -70.9829 H         1 UNK         0.3453 
     85 H85       -68.7167   31.3145  -70.8236 H         1 UNK         0.3453 
     86 H86       -72.8607   29.4620  -73.2747 H         1 UNK         0.2984 
     87 H87       -73.0961   30.3747  -75.9628 H         1 UNK         0.0554 
     88 H88       -71.0752   31.1541  -77.1227 H         1 UNK         0.0847 
     89 H89       -71.5091   29.5642  -77.7276 H         1 UNK         0.0847 
     90 H90       -70.1668   29.7459  -76.5986 H         1 UNK         0.0847 
     91 H91       -73.4143   28.2602  -75.5556 H         1 UNK         0.3141 
     92 H92       -71.3094   25.5085  -74.5738 H         1 UNK         0.0743 
     93 H93       -72.0697   26.5565  -72.4620 H         1 UNK         0.0784 
     94 H94       -73.6328   26.9275  -73.1743 H         1 UNK         0.0784 
     95 H95       -73.1528   25.2502  -72.9178 H         1 UNK         0.0784 
     96 H96       -73.8563   26.3951  -75.8784 H         1 UNK         0.3213 
     97 H97       -73.6618   23.7522  -78.1107 H         1 UNK         0.0855 
     98 H98       -75.7449   23.7520  -75.8632 H         1 UNK         0.0814 
     99 H99       -74.8148   22.3726  -76.4241 H         1 UNK         0.0814 
    100 H100      -76.0045   23.1124  -77.4846 H         1 UNK         0.0814 
    101 H101      -75.7342   25.6747  -77.5123 H         1 UNK         0.3105 
    102 H102      -74.1831   28.4728  -78.8746 H         1 UNK         0.0547 
    103 H103      -74.4458   27.4053  -81.1229 H         1 UNK         0.0837 
    104 H104      -76.0367   26.8127  -80.6682 H         1 UNK         0.0837 
    105 H105      -75.7392   28.5467  -80.8067 H         1 UNK         0.0837 
    106 H106      -76.9529   28.0005  -78.6821 H         1 UNK         0.3020 
    107 H107      -77.3773   28.4075  -75.1974 H         1 UNK         0.1245 
    108 H108      -77.8331   30.2407  -77.6059 H         1 UNK         0.0781 
    109 H109      -77.0479   30.6893  -76.1180 H         1 UNK         0.0781 
    110 H110      -79.8466   32.0152  -74.0394 H         1 UNK         0.0836 
    111 H111      -78.2011   32.1489  -74.5923 H         1 UNK         0.0836 
    112 H112      -79.4072   28.1037  -76.9412 H         1 UNK         0.3022 
    113 H113      -80.6172   26.1493  -76.4890 H         1 UNK         0.0747 
    114 H114      -81.0986   25.1503  -78.7742 H         1 UNK         0.0793 
    115 H115      -79.3884   25.3205  -79.1728 H         1 UNK         0.0793 
    116 H116      -80.3599   26.7411  -78.8421 H         1 UNK         0.0793 
    117 H117      -80.2867   24.1849  -75.5924 H         1 UNK         0.3047 
    118 H118      -79.9337   21.0863  -76.7763 H         1 UNK         0.0822 
    119 H119      -78.0965   20.3744  -75.2504 H         1 UNK         0.0807 
    120 H120      -77.4831   22.0268  -75.1936 H         1 UNK         0.0807 
    121 H121      -77.4461   21.1188  -76.6998 H         1 UNK         0.0807 
    122 H122      -79.6639   22.2192  -74.0933 H         1 UNK         0.2946 
    123 H123      -82.9937   23.0721  -73.6771 H         1 UNK         0.1144 
    124 H124      -83.3905   20.6132  -73.4187 H         1 UNK         0.0793 
    125 H125      -83.2173   21.3954  -71.8579 H         1 UNK         0.0793 
    126 H126      -81.8845   20.4514  -72.5266 H         1 UNK         0.0793 
    127 H127      -81.0415   22.6430  -71.6867 H         1 UNK         0.2896 
@<TRIPOS>BOND
     1    1    2 1    
     2    1   67 1    
     3    1   68 1    
     4    1   69 1    
     5    2    3 2    
     6    2    4 am   BACKBONE|DICT|INTERRES
     7    4    5 1    
     8    4   70 1    
     9    5    6 1    
    10    5   65 1    
    11    5   71 1    
    12    6    7 1    
    13    6   72 1    
    14    6   73 1    
    15    7    8 1    
    16    8    9 1    
    17    8   74 1    
    18    8   75 1    
    19    9   10 ar   
    20    9   14 ar   
    21   10   11 ar   
    22   10   76 1    
    23   11   12 ar   
    24   11   48 1    
    25   12   13 ar   
    26   12   77 1    
    27   13   14 ar   
    28   13   15 1    
    29   14   78 1    
    30   15   16 1    
    31   15   79 1    
    32   15   80 1    
    33   16   17 1    
    34   17   18 1    
    35   17   81 1    
    36   17   82 1    
    37   18   19 1    
    38   18   22 1    
    39   18   83 1    
    40   19   20 am   BACKBONE|DICT|INTERRES
    41   19   21 2    
    42   20   84 1    
    43   20   85 1    
    44   22   23 am   BACKBONE|DICT|INTERRES
    45   22   86 1    
    46   23   24 2    
    47   23   25 1    
    48   25   26 1    
    49   25   27 1    
    50   25   87 1    
    51   26   88 1    
    52   26   89 1    
    53   26   90 1    
    54   27   28 am   BACKBONE|DICT|INTERRES
    55   27   91 1    
    56   28   29 2    
    57   28   30 1    
    58   30   31 1    
    59   30   32 1    
    60   30   92 1    
    61   31   93 1    
    62   31   94 1    
    63   31   95 1    
    64   32   33 am   BACKBONE|DICT|INTERRES
    65   32   96 1    
    66   33   34 2    
    67   33   35 1    
    68   35   36 1    
    69   35   37 1    
    70   35   97 1    
    71   36   98 1    
    72   36   99 1    
    73   36  100 1    
    74   37   38 am   BACKBONE|DICT|INTERRES
    75   37  101 1    
    76   38   39 2    
    77   38   40 1    
    78   40   41 1    
    79   40   42 1    
    80   40  102 1    
    81   41  103 1    
    82   41  104 1    
    83   41  105 1    
    84   42   43 am   BACKBONE|DICT|INTERRES
    85   42  106 1    
    86   43   44 2    
    87   43   45 1    
    88   45   46 1    
    89   45   49 1    
    90   45  107 1    
    91   46   47 1    
    92   46  108 1    
    93   46  109 1    
    94   47   48 1    
    95   48  110 1    
    96   48  111 1    
    97   49   50 am   BACKBONE|DICT|INTERRES
    98   49  112 1    
    99   50   51 2    
   100   50   52 1    
   101   52   53 1    
   102   52   54 1    
   103   52  113 1    
   104   53  114 1    
   105   53  115 1    
   106   53  116 1    
   107   54   55 am   BACKBONE|DICT|INTERRES
   108   54  117 1    
   109   55   56 2    
   110   55   57 1    
   111   57   58 1    
   112   57   59 1    
   113   57  118 1    
   114   58  119 1    
   115   58  120 1    
   116   58  121 1    
   117   59   60 am   BACKBONE|DICT|INTERRES
   118   59  122 1    
   119   60   61 2    
   120   60   62 1    
   121   62   63 1    
   122   62   64 1    
   123   62  123 1    
   124   63  124 1    
   125   63  125 1    
   126   63  126 1    
   127   64   65 am   BACKBONE|DICT|INTERRES
   128   64  127 1    
   129   65   66 2    
@<TRIPOS>SUBSTRUCTURE
     1 UNK         1 GROUP             0       ****    0 ROOT    
