@<TRIPOS>MOLECULE
3R135
127   129    1
SMALL
USER_CHARGES


@<TRIPOS>ATOM
      1 CA        -83.0789   27.0834  -75.8365 C.3       0 UNK        -0.1998 
      2 C         -81.6568   27.6151  -75.9209 C.2       0 UNK         0.4909 
      3 O         -81.0868   27.6473  -77.0123 O.2       0 UNK        -0.5240 
      4 N         -81.0865   28.0193  -74.7750 N.am      1 UNK        -0.4739 
      5 CA        -79.7260   28.5469  -74.5943 C.3       1 UNK         0.0864 
      6 C6        -79.3749   28.6994  -73.0957 C.3       11 UNK        -0.0881 
      7 S7        -80.4196   29.8747  -72.1767 S.3       11 UNK        -0.2682 
      8 C8        -80.2858   29.2044  -70.4807 C.3       11 UNK         0.0289 
      9 C9        -78.8441   28.8883  -70.0965 C.ar      11 UNK        -0.0687 
     10 C10       -78.4041   27.5606  -70.0391 C.ar      11 UNK        -0.0823 
     11 C11       -77.0674   27.2645  -69.7546 C.ar      11 UNK        -0.0830 
     12 C12       -76.1709   28.3114  -69.5227 C.ar      11 UNK        -0.1021 
     13 C13       -76.5968   29.6429  -69.5737 C.ar      11 UNK        -0.0753 
     14 C14       -77.9409   29.9238  -69.8402 C.ar      11 UNK        -0.0933 
     15 C15       -75.5917   30.7673  -69.3480 C.3       11 UNK         0.0166 
     16 S16       -75.5670   32.0390  -70.6633 S.3       11 UNK        -0.2615 
     17 C17       -75.6410   31.0926  -72.2258 C.3       11 UNK        -0.0865 
     18 CA        -74.2563   30.6598  -72.7820 C.3       10 UNK         0.0862 
     19 C         -73.8177   29.2981  -72.1701 C.2       10 UNK         0.5551 
     20 N         -74.2328   28.1799  -72.7501 N.am      10 UNK        -0.7319 
     21 O         -73.0928   29.2601  -71.1795 O.2       10 UNK        -0.5018 
     22 N         -74.2542   30.7020  -74.2569 N.am      10 UNK        -0.4509 
     23 C         -73.2114   30.4137  -75.0453 C.2       10 UNK         0.4899 
     24 O         -72.1008   30.0636  -74.6391 O.2       10 UNK        -0.4839 
     25 CA        -73.4379   30.5708  -76.5522 C.3       9 UNK         0.0222 
     26 CB        -73.0533   31.9910  -77.0117 C.3       9 UNK        -0.1966 
     27 N         -72.6276   29.5629  -77.2269 N.am      9 UNK        -0.4218 
     28 C         -72.6962   29.2060  -78.5145 C.2       9 UNK         0.5020 
     29 O         -73.4276   29.7460  -79.3455 O.2       9 UNK        -0.5274 
     30 CA        -71.8084   28.0214  -78.9407 C.3       8 UNK         0.0270 
     31 CB        -70.3848   28.4997  -79.2710 C.3       8 UNK        -0.1976 
     32 N         -71.7520   26.9586  -77.9287 N.am      8 UNK        -0.4313 
     33 C         -72.8051   26.2107  -77.5727 C.2       8 UNK         0.5041 
     34 O         -73.9138   26.3003  -78.1012 O.2       8 UNK        -0.5577 
     35 CA        -72.5948   25.2194  -76.4230 C.3       7 UNK         0.0284 
     36 CB        -72.4376   25.9560  -75.0799 C.3       7 UNK        -0.1958 
     37 N         -73.7530   24.3320  -76.3450 N.am      7 UNK        -0.4454 
     38 C         -73.7264   23.0482  -75.9767 C.2       7 UNK         0.5089 
     39 O         -72.6988   22.4403  -75.6693 O.2       7 UNK        -0.5125 
     40 CA        -75.0976   22.3521  -75.9147 C.3       6 UNK         0.0408 
     41 CB        -75.0054   20.8368  -75.6350 C.3       6 UNK        -0.1791 
     42 N         -75.9870   23.0204  -74.9565 N.am      6 UNK        -0.4762 
     43 C         -75.8212   23.1425  -73.6273 C.2       6 UNK         0.5007 
     44 O         -74.8919   22.6305  -73.0024 O.2       6 UNK        -0.5032 
     45 CA        -76.8822   23.9605  -72.8563 C.3       5 UNK         0.0783 
     46 C46       -76.3707   25.3736  -72.4695 C.3       11 UNK        -0.0857 
     47 S47       -75.3645   25.3860  -70.9491 S.3       11 UNK        -0.2512 
     48 C48       -76.5970   25.8156  -69.6731 C.3       11 UNK         0.0225 
     49 N         -78.1364   24.0699  -73.6003 N.am      5 UNK        -0.4615 
     50 C         -79.0752   23.1236  -73.6985 C.2       4 UNK         0.5053 
     51 O         -78.9945   22.0150  -73.1701 O.2       4 UNK        -0.5105 
     52 CA        -80.3157   23.4897  -74.5244 C.3       4 UNK         0.0263 
     53 CB        -81.2514   24.4014  -73.7125 C.3       4 UNK        -0.1981 
     54 N         -79.9538   24.1564  -75.7781 N.am      4 UNK        -0.4224 
     55 C         -79.6940   23.5184  -76.9273 C.2       3 UNK         0.4895 
     56 O         -79.7216   22.2935  -77.0494 O.2       3 UNK        -0.5091 
     57 CA        -79.3719   24.3803  -78.1616 C.3       3 UNK         0.0250 
     58 CB        -80.6423   24.6077  -78.9969 C.3       3 UNK        -0.1996 
     59 N         -78.7785   25.6782  -77.8340 N.am      3 UNK        -0.4254 
     60 C         -77.5002   25.8529  -77.4688 C.2       2 UNK         0.5004 
     61 O         -76.6898   24.9339  -77.3454 O.2       2 UNK        -0.5226 
     62 CA        -77.0729   27.2933  -77.1222 C.3       2 UNK         0.0269 
     63 CB        -76.7275   28.0759  -78.4002 C.3       2 UNK        -0.1926 
     64 N         -78.0718   28.0528  -76.3583 N.am      2 UNK        -0.4687 
     65 C         -78.6715   27.6289  -75.2382 C.2       1 UNK         0.5165 
     66 O         -78.4490   26.5361  -74.7184 O.2       1 UNK        -0.5079 
     67 H67       -83.4455   27.0570  -74.8105 H         1 UNK         0.0900 
     68 H68       -83.7488   27.7131  -76.4213 H         1 UNK         0.0900 
     69 H69       -83.1244   26.0719  -76.2393 H         1 UNK         0.0900 
     70 H70       -81.6287   27.9747  -73.9241 H         1 UNK         0.2959 
     71 H71       -79.6799   29.5282  -75.0701 H         1 UNK         0.1079 
     72 H72       -78.3398   29.0252  -72.9731 H         1 UNK         0.0837 
     73 H73       -79.4465   27.7258  -72.6069 H         1 UNK         0.0837 
     74 H74       -80.9073   28.3108  -70.4045 H         1 UNK         0.0685 
     75 H75       -80.7017   29.9274  -69.7776 H         1 UNK         0.0685 
     76 H76       -79.1013   26.7566  -70.2318 H         1 UNK         0.1434 
     77 H77       -75.1338   28.0846  -69.3146 H         1 UNK         0.1329 
     78 H78       -78.2755   30.9510  -69.8908 H         1 UNK         0.1335 
     79 H79       -74.5835   30.3652  -69.2420 H         1 UNK         0.0680 
     80 H80       -75.8211   31.2545  -68.3996 H         1 UNK         0.0680 
     81 H81       -76.3242   30.2464  -72.1434 H         1 UNK         0.1032 
     82 H82       -76.1281   31.7657  -72.9328 H         1 UNK         0.1032 
     83 H83       -73.5160   31.3998  -72.4712 H         1 UNK         0.0461 
     84 H84       -74.8218   28.2156  -73.5640 H         1 UNK         0.3453 
     85 H85       -73.9746   27.2956  -72.3422 H         1 UNK         0.3453 
     86 H86       -75.1187   30.9863  -74.6928 H         1 UNK         0.2984 
     87 H87       -74.4891   30.3811  -76.7786 H         1 UNK         0.0554 
     88 H88       -73.6247   32.7461  -76.4704 H         1 UNK         0.0847 
     89 H89       -73.2531   32.1397  -78.0727 H         1 UNK         0.0847 
     90 H90       -71.9960   32.1959  -76.8389 H         1 UNK         0.0847 
     91 H91       -71.9919   29.0719  -76.6106 H         1 UNK         0.3141 
     92 H92       -72.2424   27.5960  -79.8484 H         1 UNK         0.0743 
     93 H93       -70.4038   29.2776  -80.0358 H         1 UNK         0.0784 
     94 H94       -69.8819   28.9153  -78.3968 H         1 UNK         0.0784 
     95 H95       -69.7716   27.6848  -79.6565 H         1 UNK         0.0784 
     96 H96       -70.8679   26.8175  -77.4603 H         1 UNK         0.3213 
     97 H97       -71.6947   24.6386  -76.6362 H         1 UNK         0.0855 
     98 H98       -73.3052   26.5805  -74.8663 H         1 UNK         0.0814 
     99 H99       -71.5604   26.6038  -75.0776 H         1 UNK         0.0814 
    100 H100      -72.3216   25.2545  -74.2533 H         1 UNK         0.0814 
    101 H101      -74.6228   24.7323  -76.6892 H         1 UNK         0.3105 
    102 H102      -75.5554   22.4719  -76.8978 H         1 UNK         0.0547 
    103 H103      -75.9931   20.3765  -75.6190 H         1 UNK         0.0837 
    104 H104      -74.5200   20.6226  -74.6826 H         1 UNK         0.0837 
    105 H105      -74.4258   20.3355  -76.4109 H         1 UNK         0.0837 
    106 H106      -76.7649   23.5152  -75.3729 H         1 UNK         0.3020 
    107 H107      -77.0993   23.4079  -71.9391 H         1 UNK         0.1245 
    108 H108      -77.2094   26.0531  -72.3119 H         1 UNK         0.0781 
    109 H109      -75.7958   25.8174  -73.2842 H         1 UNK         0.0781 
    110 H110      -76.1522   25.6485  -68.6912 H         1 UNK         0.0836 
    111 H111      -77.4392   25.1255  -69.7445 H         1 UNK         0.0836 
    112 H112      -78.2944   24.9678  -74.0588 H         1 UNK         0.3022 
    113 H113      -80.8564   22.5667  -74.7458 H         1 UNK         0.0747 
    114 H114      -82.1710   24.6098  -74.2587 H         1 UNK         0.0793 
    115 H115      -81.5361   23.9280  -72.7718 H         1 UNK         0.0793 
    116 H116      -80.7811   25.3545  -73.4675 H         1 UNK         0.0793 
    117 H117      -79.8302   25.1597  -75.7449 H         1 UNK         0.3047 
    118 H118      -78.6595   23.8215  -78.7727 H         1 UNK         0.0822 
    119 H119      -80.4205   25.1499  -79.9163 H         1 UNK         0.0807 
    120 H120      -81.3923   25.1762  -78.4451 H         1 UNK         0.0807 
    121 H121      -81.0974   23.6586  -79.2835 H         1 UNK         0.0807 
    122 H122      -79.3963   26.4826  -77.8428 H         1 UNK         0.2946 
    123 H123      -76.1713   27.2188  -76.5103 H         1 UNK         0.1144 
    124 H124      -76.0262   27.5222  -79.0255 H         1 UNK         0.0793 
    125 H125      -76.2583   29.0317  -78.1667 H         1 UNK         0.0793 
    126 H126      -77.6125   28.2725  -79.0063 H         1 UNK         0.0793 
    127 H127      -78.3476   28.9437  -76.7460 H         1 UNK         0.2896 
@<TRIPOS>BOND
     1    1    2 1    
     2    1   67 1    
     3    1   68 1    
     4    1   69 1    
     5    2    3 2    
     6    2    4 am   BACKBONE|DICT|INTERRES
     7    4    5 1    
     8    4   70 1    
     9    5    6 1    
    10    5   65 1    
    11    5   71 1    
    12    6    7 1    
    13    6   72 1    
    14    6   73 1    
    15    7    8 1    
    16    8    9 1    
    17    8   74 1    
    18    8   75 1    
    19    9   10 ar   
    20    9   14 ar   
    21   10   11 ar   
    22   10   76 1    
    23   11   12 ar   
    24   11   48 1    
    25   12   13 ar   
    26   12   77 1    
    27   13   14 ar   
    28   13   15 1    
    29   14   78 1    
    30   15   16 1    
    31   15   79 1    
    32   15   80 1    
    33   16   17 1    
    34   17   18 1    
    35   17   81 1    
    36   17   82 1    
    37   18   19 1    
    38   18   22 1    
    39   18   83 1    
    40   19   20 am   BACKBONE|DICT|INTERRES
    41   19   21 2    
    42   20   84 1    
    43   20   85 1    
    44   22   23 am   BACKBONE|DICT|INTERRES
    45   22   86 1    
    46   23   24 2    
    47   23   25 1    
    48   25   26 1    
    49   25   27 1    
    50   25   87 1    
    51   26   88 1    
    52   26   89 1    
    53   26   90 1    
    54   27   28 am   BACKBONE|DICT|INTERRES
    55   27   91 1    
    56   28   29 2    
    57   28   30 1    
    58   30   31 1    
    59   30   32 1    
    60   30   92 1    
    61   31   93 1    
    62   31   94 1    
    63   31   95 1    
    64   32   33 am   BACKBONE|DICT|INTERRES
    65   32   96 1    
    66   33   34 2    
    67   33   35 1    
    68   35   36 1    
    69   35   37 1    
    70   35   97 1    
    71   36   98 1    
    72   36   99 1    
    73   36  100 1    
    74   37   38 am   BACKBONE|DICT|INTERRES
    75   37  101 1    
    76   38   39 2    
    77   38   40 1    
    78   40   41 1    
    79   40   42 1    
    80   40  102 1    
    81   41  103 1    
    82   41  104 1    
    83   41  105 1    
    84   42   43 am   BACKBONE|DICT|INTERRES
    85   42  106 1    
    86   43   44 2    
    87   43   45 1    
    88   45   46 1    
    89   45   49 1    
    90   45  107 1    
    91   46   47 1    
    92   46  108 1    
    93   46  109 1    
    94   47   48 1    
    95   48  110 1    
    96   48  111 1    
    97   49   50 am   BACKBONE|DICT|INTERRES
    98   49  112 1    
    99   50   51 2    
   100   50   52 1    
   101   52   53 1    
   102   52   54 1    
   103   52  113 1    
   104   53  114 1    
   105   53  115 1    
   106   53  116 1    
   107   54   55 am   BACKBONE|DICT|INTERRES
   108   54  117 1    
   109   55   56 2    
   110   55   57 1    
   111   57   58 1    
   112   57   59 1    
   113   57  118 1    
   114   58  119 1    
   115   58  120 1    
   116   58  121 1    
   117   59   60 am   BACKBONE|DICT|INTERRES
   118   59  122 1    
   119   60   61 2    
   120   60   62 1    
   121   62   63 1    
   122   62   64 1    
   123   62  123 1    
   124   63  124 1    
   125   63  125 1    
   126   63  126 1    
   127   64   65 am   BACKBONE|DICT|INTERRES
   128   64  127 1    
   129   65   66 2    
@<TRIPOS>SUBSTRUCTURE
     1 UNK         1 GROUP             0       ****    0 ROOT    
