@<TRIPOS>MOLECULE
3R135
127   129    1
SMALL
USER_CHARGES


@<TRIPOS>ATOM
      1 CA        -84.1223   25.7811  -75.3537 C.3       0 UNK        -0.1998 
      2 C         -82.9756   26.6968  -74.9552 C.2       0 UNK         0.4909 
      3 O         -82.4489   27.4202  -75.8011 O.2       0 UNK        -0.5240 
      4 N         -82.5825   26.6783  -73.6740 N.am      1 UNK        -0.4739 
      5 CA        -81.5002   27.5078  -73.1337 C.3       1 UNK         0.0864 
      6 C6        -81.4834   27.5050  -71.5860 C.3       11 UNK        -0.0881 
      7 S7        -80.8628   29.0877  -70.9235 S.3       11 UNK        -0.2682 
      8 C8        -79.7789   28.5390  -69.5705 C.3       11 UNK         0.0289 
      9 C9        -78.4018   28.1186  -70.0633 C.ar      11 UNK        -0.0687 
     10 C10       -78.0809   26.7657  -70.2037 C.ar      11 UNK        -0.0823 
     11 C11       -76.7943   26.3745  -70.5898 C.ar      11 UNK        -0.0830 
     12 C12       -75.8245   27.3520  -70.8354 C.ar      11 UNK        -0.1021 
     13 C13       -76.1331   28.7093  -70.6983 C.ar      11 UNK        -0.0753 
     14 C14       -77.4253   29.0855  -70.3198 C.ar      11 UNK        -0.0933 
     15 C15       -75.0623   29.7715  -70.9008 C.3       11 UNK         0.0166 
     16 S16       -75.1575   30.5133  -72.5561 S.3       11 UNK        -0.2615 
     17 C17       -74.0197   31.9243  -72.3624 C.3       11 UNK        -0.0865 
     18 CA        -73.3569   32.3469  -73.6986 C.3       10 UNK         0.0862 
     19 C         -72.5566   33.6649  -73.5016 C.2       10 UNK         0.5551 
     20 N         -73.1731   34.8098  -73.7598 N.am      10 UNK        -0.7319 
     21 O         -71.4039   33.6568  -73.0731 O.2       10 UNK        -0.5018 
     22 N         -72.5376   31.2610  -74.2586 N.am      10 UNK        -0.4509 
     23 C         -71.9177   31.2886  -75.4466 C.2       10 UNK         0.4899 
     24 O         -72.0326   32.2038  -76.2626 O.2       10 UNK        -0.4839 
     25 CA        -71.0066   30.0962  -75.7882 C.3       9 UNK         0.0222 
     26 CB        -69.5457   30.4270  -75.4407 C.3       9 UNK        -0.1966 
     27 N         -71.3974   28.8591  -75.1059 N.am      9 UNK        -0.4218 
     28 C         -72.4109   28.0740  -75.4919 C.2       9 UNK         0.5020 
     29 O         -73.1165   28.2903  -76.4796 O.2       9 UNK        -0.5274 
     30 CA        -72.6963   26.8465  -74.6127 C.3       8 UNK         0.0270 
     31 CB        -74.0538   26.9864  -73.9088 C.3       8 UNK        -0.1976 
     32 N         -72.6983   25.6159  -75.3986 N.am      8 UNK        -0.4313 
     33 C         -71.6223   25.0512  -75.9623 C.2       8 UNK         0.5041 
     34 O         -70.4795   25.4971  -75.8471 O.2       8 UNK        -0.5577 
     35 CA        -71.8451   23.7546  -76.7647 C.3       7 UNK         0.0284 
     36 CB        -71.2249   22.5533  -76.0317 C.3       7 UNK        -0.1958 
     37 N         -73.2613   23.4724  -77.0121 N.am      7 UNK        -0.4454 
     38 C         -74.0104   24.0409  -77.9622 C.2       7 UNK         0.5089 
     39 O         -73.5681   24.8297  -78.7971 O.2       7 UNK        -0.5125 
     40 CA        -75.5091   23.6938  -77.9727 C.3       6 UNK         0.0408 
     41 CB        -75.7709   22.3659  -78.7076 C.3       6 UNK        -0.1791 
     42 N         -76.1635   23.7150  -76.6558 N.am      6 UNK        -0.4762 
     43 C         -76.0042   22.8992  -75.6019 C.2       6 UNK         0.5007 
     44 O         -75.1413   22.0226  -75.5405 O.2       6 UNK        -0.5032 
     45 CA        -76.9904   23.0703  -74.4271 C.3       5 UNK         0.0783 
     46 C46       -76.4683   24.0786  -73.3769 C.3       11 UNK        -0.0857 
     47 S47       -77.4652   23.9847  -71.8541 S.3       11 UNK        -0.2512 
     48 C48       -76.4372   24.8953  -70.6589 C.3       11 UNK         0.0225 
     49 N         -78.3386   23.4133  -74.8925 N.am      5 UNK        -0.4615 
     50 C         -79.1399   22.5838  -75.5749 C.2       4 UNK         0.5053 
     51 O         -78.8651   21.4093  -75.8215 O.2       4 UNK        -0.5105 
     52 CA        -80.4621   23.1709  -76.0884 C.3       4 UNK         0.0263 
     53 CB        -81.5474   23.1069  -75.0020 C.3       4 UNK        -0.1981 
     54 N         -80.2859   24.5481  -76.5580 N.am      4 UNK        -0.4224 
     55 C         -79.7418   24.8648  -77.7435 C.2       3 UNK         0.4895 
     56 O         -79.4416   24.0333  -78.6004 O.2       3 UNK        -0.5091 
     57 CA        -79.4667   26.3516  -78.0294 C.3       3 UNK         0.0250 
     58 CB        -80.6254   26.9732  -78.8251 C.3       3 UNK        -0.1996 
     59 N         -79.2212   27.1407  -76.8200 N.am      3 UNK        -0.4254 
     60 C         -78.1069   27.0579  -76.0768 C.2       2 UNK         0.5004 
     61 O         -77.1640   26.3161  -76.3429 O.2       2 UNK        -0.5226 
     62 CA        -78.0472   27.9124  -74.7982 C.3       2 UNK         0.0269 
     63 CB        -77.4473   29.2897  -75.1157 C.3       2 UNK        -0.1926 
     64 N         -79.3482   28.0931  -74.1488 N.am      2 UNK        -0.4687 
     65 C         -80.1387   27.0972  -73.7279 C.2       1 UNK         0.5165 
     66 O         -79.8500   25.9019  -73.8334 O.2       1 UNK        -0.5079 
     67 H67       -84.3545   25.0565  -74.5735 H         1 UNK         0.0900 
     68 H68       -83.8694   25.2353  -76.2622 H         1 UNK         0.0900 
     69 H69       -85.0177   26.3696  -75.5510 H         1 UNK         0.0900 
     70 H70       -83.0235   26.0439  -73.0237 H         1 UNK         0.2959 
     71 H71       -81.7201   28.5244  -73.4695 H         1 UNK         0.1079 
     72 H72       -82.4956   27.3852  -71.1963 H         1 UNK         0.0837 
     73 H73       -80.9136   26.6613  -71.1919 H         1 UNK         0.0837 
     74 H74       -79.6687   29.3608  -68.8613 H         1 UNK         0.0685 
     75 H75       -80.2595   27.7300  -69.0179 H         1 UNK         0.0685 
     76 H76       -78.8250   26.0106  -69.9903 H         1 UNK         0.1434 
     77 H77       -74.8191   27.0576  -71.1002 H         1 UNK         0.1329 
     78 H78       -77.6652   30.1336  -70.2021 H         1 UNK         0.1335 
     79 H79       -75.1787   30.5522  -70.1473 H         1 UNK         0.0680 
     80 H80       -74.0684   29.3460  -70.7536 H         1 UNK         0.0680 
     81 H81       -73.2550   31.6798  -71.6223 H         1 UNK         0.1032 
     82 H82       -74.5953   32.7513  -71.9415 H         1 UNK         0.1032 
     83 H83       -74.1513   32.5441  -74.4217 H         1 UNK         0.0461 
     84 H84       -72.6764   35.6763  -73.6221 H         1 UNK         0.3453 
     85 H85       -74.1216   34.8258  -74.1018 H         1 UNK         0.3453 
     86 H86       -72.3891   30.4665  -73.6568 H         1 UNK         0.2984 
     87 H87       -71.0665   29.9326  -76.8665 H         1 UNK         0.0554 
     88 H88       -68.8741   29.6202  -75.7350 H         1 UNK         0.0847 
     89 H89       -69.4125   30.6048  -74.3727 H         1 UNK         0.0847 
     90 H90       -69.2158   31.3267  -75.9624 H         1 UNK         0.0847 
     91 H91       -70.8530   28.5921  -74.2977 H         1 UNK         0.3141 
     92 H92       -71.9205   26.7594  -73.8489 H         1 UNK         0.0743 
     93 H93       -74.0810   27.8892  -73.2999 H         1 UNK         0.0784 
     94 H94       -74.8764   27.0509  -74.6225 H         1 UNK         0.0784 
     95 H95       -74.2443   26.1421  -73.2475 H         1 UNK         0.0784 
     96 H96       -73.5983   25.2068  -75.5969 H         1 UNK         0.3213 
     97 H97       -71.3358   23.8728  -77.7237 H         1 UNK         0.0855 
     98 H98       -70.1599   22.7097  -75.8544 H         1 UNK         0.0814 
     99 H99       -71.3231   21.6383  -76.6161 H         1 UNK         0.0814 
    100 H100      -71.6961   22.3850  -75.0624 H         1 UNK         0.0814 
    101 H101      -73.7301   22.8238  -76.3817 H         1 UNK         0.3105 
    102 H102      -76.0039   24.4807  -78.5447 H         1 UNK         0.0547 
    103 H103      -75.3679   22.3961  -79.7206 H         1 UNK         0.0837 
    104 H104      -75.3093   21.5182  -78.2007 H         1 UNK         0.0837 
    105 H105      -76.8397   22.1663  -78.7896 H         1 UNK         0.0837 
    106 H106      -76.8075   24.4949  -76.5364 H         1 UNK         0.3020 
    107 H107      -77.0528   22.0904  -73.9471 H         1 UNK         0.1245 
    108 H108      -76.4969   25.0990  -73.7620 H         1 UNK         0.0781 
    109 H109      -75.4289   23.8629  -73.1220 H         1 UNK         0.0781 
    110 H110      -75.3806   24.7518  -70.8895 H         1 UNK         0.0836 
    111 H111      -76.5908   24.4589  -69.6710 H         1 UNK         0.0836 
    112 H112      -78.6783   24.3393  -74.6579 H         1 UNK         0.3022 
    113 H113      -80.7945   22.5535  -76.9260 H         1 UNK         0.0747 
    114 H114      -82.5181   23.3983  -75.3991 H         1 UNK         0.0793 
    115 H115      -81.6531   22.0911  -74.6188 H         1 UNK         0.0793 
    116 H116      -81.3189   23.7504  -74.1524 H         1 UNK         0.0793 
    117 H117      -80.4580   25.2857  -75.8866 H         1 UNK         0.3047 
    118 H118      -78.5683   26.4011  -78.6490 H         1 UNK         0.0822 
    119 H119      -80.4189   28.0120  -79.0829 H         1 UNK         0.0807 
    120 H120      -81.5620   26.9445  -78.2678 H         1 UNK         0.0807 
    121 H121      -80.7880   26.4346  -79.7597 H         1 UNK         0.0807 
    122 H122      -79.9686   27.7479  -76.5106 H         1 UNK         0.2946 
    123 H123      -77.3957   27.4045  -74.0834 H         1 UNK         0.1144 
    124 H124      -77.4293   29.9263  -74.2322 H         1 UNK         0.0793 
    125 H125      -78.0138   29.8115  -75.8881 H         1 UNK         0.0793 
    126 H126      -76.4195   29.1943  -75.4697 H         1 UNK         0.0793 
    127 H127      -79.6547   29.0461  -74.0149 H         1 UNK         0.2896 
@<TRIPOS>BOND
     1    1    2 1    
     2    1   67 1    
     3    1   68 1    
     4    1   69 1    
     5    2    3 2    
     6    2    4 am   BACKBONE|DICT|INTERRES
     7    4    5 1    
     8    4   70 1    
     9    5    6 1    
    10    5   65 1    
    11    5   71 1    
    12    6    7 1    
    13    6   72 1    
    14    6   73 1    
    15    7    8 1    
    16    8    9 1    
    17    8   74 1    
    18    8   75 1    
    19    9   10 ar   
    20    9   14 ar   
    21   10   11 ar   
    22   10   76 1    
    23   11   12 ar   
    24   11   48 1    
    25   12   13 ar   
    26   12   77 1    
    27   13   14 ar   
    28   13   15 1    
    29   14   78 1    
    30   15   16 1    
    31   15   79 1    
    32   15   80 1    
    33   16   17 1    
    34   17   18 1    
    35   17   81 1    
    36   17   82 1    
    37   18   19 1    
    38   18   22 1    
    39   18   83 1    
    40   19   20 am   BACKBONE|DICT|INTERRES
    41   19   21 2    
    42   20   84 1    
    43   20   85 1    
    44   22   23 am   BACKBONE|DICT|INTERRES
    45   22   86 1    
    46   23   24 2    
    47   23   25 1    
    48   25   26 1    
    49   25   27 1    
    50   25   87 1    
    51   26   88 1    
    52   26   89 1    
    53   26   90 1    
    54   27   28 am   BACKBONE|DICT|INTERRES
    55   27   91 1    
    56   28   29 2    
    57   28   30 1    
    58   30   31 1    
    59   30   32 1    
    60   30   92 1    
    61   31   93 1    
    62   31   94 1    
    63   31   95 1    
    64   32   33 am   BACKBONE|DICT|INTERRES
    65   32   96 1    
    66   33   34 2    
    67   33   35 1    
    68   35   36 1    
    69   35   37 1    
    70   35   97 1    
    71   36   98 1    
    72   36   99 1    
    73   36  100 1    
    74   37   38 am   BACKBONE|DICT|INTERRES
    75   37  101 1    
    76   38   39 2    
    77   38   40 1    
    78   40   41 1    
    79   40   42 1    
    80   40  102 1    
    81   41  103 1    
    82   41  104 1    
    83   41  105 1    
    84   42   43 am   BACKBONE|DICT|INTERRES
    85   42  106 1    
    86   43   44 2    
    87   43   45 1    
    88   45   46 1    
    89   45   49 1    
    90   45  107 1    
    91   46   47 1    
    92   46  108 1    
    93   46  109 1    
    94   47   48 1    
    95   48  110 1    
    96   48  111 1    
    97   49   50 am   BACKBONE|DICT|INTERRES
    98   49  112 1    
    99   50   51 2    
   100   50   52 1    
   101   52   53 1    
   102   52   54 1    
   103   52  113 1    
   104   53  114 1    
   105   53  115 1    
   106   53  116 1    
   107   54   55 am   BACKBONE|DICT|INTERRES
   108   54  117 1    
   109   55   56 2    
   110   55   57 1    
   111   57   58 1    
   112   57   59 1    
   113   57  118 1    
   114   58  119 1    
   115   58  120 1    
   116   58  121 1    
   117   59   60 am   BACKBONE|DICT|INTERRES
   118   59  122 1    
   119   60   61 2    
   120   60   62 1    
   121   62   63 1    
   122   62   64 1    
   123   62  123 1    
   124   63  124 1    
   125   63  125 1    
   126   63  126 1    
   127   64   65 am   BACKBONE|DICT|INTERRES
   128   64  127 1    
   129   65   66 2    
@<TRIPOS>SUBSTRUCTURE
     1 UNK         1 GROUP             0       ****    0 ROOT    
