@<TRIPOS>MOLECULE
3R135
127   129    1
SMALL
USER_CHARGES


@<TRIPOS>ATOM
      1 CA        -78.2018   24.9491  -70.5949 C.3       0 UNK        -0.1998 
      2 C         -79.5629   24.7513  -71.2387 C.2       0 UNK         0.4909 
      3 O         -80.2559   23.7805  -70.9325 O.2       0 UNK        -0.5240 
      4 N         -79.9403   25.6473  -72.1588 N.am      1 UNK        -0.4739 
      5 CA        -81.1959   25.6120  -72.9220 C.3       1 UNK         0.0864 
      6 C6        -81.5751   27.0175  -73.4519 C.3       11 UNK        -0.0881 
      7 S7        -81.9099   28.2069  -72.1152 S.3       11 UNK        -0.2682 
      8 C8        -81.2003   29.7373  -72.8189 C.3       11 UNK         0.0289 
      9 C9        -79.7076   29.9718  -72.5678 C.ar      11 UNK        -0.0687 
     10 C10       -79.0627   30.9664  -73.3107 C.ar      11 UNK        -0.0823 
     11 C11       -77.7381   31.3228  -73.0409 C.ar      11 UNK        -0.0830 
     12 C12       -77.0402   30.6550  -72.0299 C.ar      11 UNK        -0.1021 
     13 C13       -77.6655   29.6545  -71.2784 C.ar      11 UNK        -0.0753 
     14 C14       -78.9926   29.3113  -71.5590 C.ar      11 UNK        -0.0933 
     15 C15       -76.9540   29.0158  -70.0912 C.3       11 UNK         0.0166 
     16 S16       -75.8408   27.6593  -70.5712 S.3       11 UNK        -0.2615 
     17 C17       -74.2943   28.5459  -70.9622 C.3       11 UNK        -0.0865 
     18 CA        -73.8644   28.3385  -72.4407 C.3       10 UNK         0.0862 
     19 C         -72.7511   29.3367  -72.8948 C.2       10 UNK         0.5551 
     20 N         -71.8970   28.9834  -73.8492 N.am      10 UNK        -0.7319 
     21 O         -72.6856   30.4635  -72.4109 O.2       10 UNK        -0.5018 
     22 N         -73.5838   26.9256  -72.7561 N.am      10 UNK        -0.4509 
     23 C         -72.5286   26.2326  -72.3090 C.2       10 UNK         0.4899 
     24 O         -71.7009   26.6733  -71.5100 O.2       10 UNK        -0.4839 
     25 CA        -72.3349   24.8067  -72.8459 C.3       9 UNK         0.0222 
     26 CB        -73.0334   23.8024  -71.9145 C.3       9 UNK        -0.1966 
     27 N         -72.7458   24.5550  -74.2346 N.am      9 UNK        -0.4218 
     28 C         -72.4491   25.2650  -75.3354 C.2       9 UNK         0.5020 
     29 O         -71.9468   26.3903  -75.3262 O.2       9 UNK        -0.5274 
     30 CA        -72.6899   24.5651  -76.6857 C.3       8 UNK         0.0270 
     31 CB        -73.0085   23.0530  -76.5666 C.3       8 UNK        -0.1976 
     32 N         -73.7358   25.2423  -77.4516 N.am      8 UNK        -0.4313 
     33 C         -73.9182   25.0977  -78.7714 C.2       8 UNK         0.5041 
     34 O         -73.1337   24.4959  -79.5069 O.2       8 UNK        -0.5577 
     35 CA        -75.2032   25.6739  -79.3813 C.3       7 UNK         0.0284 
     36 CB        -76.4356   24.8958  -78.8843 C.3       7 UNK        -0.1958 
     37 N         -75.3760   27.0946  -79.0806 N.am      7 UNK        -0.4454 
     38 C         -75.4014   28.0735  -79.9971 C.2       7 UNK         0.5089 
     39 O         -75.1769   27.8917  -81.1947 O.2       7 UNK        -0.5125 
     40 CA        -75.7805   29.4944  -79.5300 C.3       6 UNK         0.0408 
     41 CB        -77.1526   29.8949  -80.0977 C.3       6 UNK        -0.1791 
     42 N         -75.8214   29.6367  -78.0745 N.am      6 UNK        -0.4762 
     43 C         -74.7479   29.8196  -77.2952 C.2       6 UNK         0.5007 
     44 O         -73.6076   29.9755  -77.7327 O.2       6 UNK        -0.5032 
     45 CA        -74.9760   29.7766  -75.7688 C.3       5 UNK         0.0783 
     46 C46       -75.0113   31.1941  -75.1487 C.3       11 UNK        -0.0857 
     47 S47       -76.5730   32.0895  -75.4612 S.3       11 UNK        -0.2512 
     48 C48       -77.1072   32.5026  -73.7713 C.3       11 UNK         0.0225 
     49 N         -76.1320   28.9702  -75.3528 N.am      5 UNK        -0.4615 
     50 C         -76.2736   27.6626  -75.5887 C.2       4 UNK         0.5053 
     51 O         -75.4380   26.9924  -76.1957 O.2       4 UNK        -0.5105 
     52 CA        -77.6108   27.0333  -75.1693 C.3       4 UNK         0.0263 
     53 CB        -78.6931   27.4760  -76.1707 C.3       4 UNK        -0.1981 
     54 N         -77.5823   25.5659  -75.1360 N.am      4 UNK        -0.4224 
     55 C         -76.7439   24.7996  -74.4215 C.2       3 UNK         0.4895 
     56 O         -75.8986   25.2433  -73.6437 O.2       3 UNK        -0.5091 
     57 CA        -76.9213   23.2812  -74.5877 C.3       3 UNK         0.0250 
     58 CB        -76.0072   22.4577  -73.6623 C.3       3 UNK        -0.1996 
     59 N         -78.3103   22.9430  -74.2972 N.am      3 UNK        -0.4254 
     60 C         -79.1608   22.2984  -75.1053 C.2       2 UNK         0.5004 
     61 O         -78.8510   21.8204  -76.1963 O.2       2 UNK        -0.5226 
     62 CA        -80.6186   22.2001  -74.6143 C.3       2 UNK         0.0269 
     63 CB        -80.8645   20.8524  -73.9177 C.3       2 UNK        -0.1926 
     64 N         -80.9706   23.2909  -73.6965 N.am      2 UNK        -0.4687 
     65 C         -81.0981   24.5739  -74.0618 C.2       1 UNK         0.5165 
     66 O         -81.0678   24.9408  -75.2372 O.2       1 UNK        -0.5079 
     67 H67       -77.4810   25.3324  -71.3165 H         1 UNK         0.0900 
     68 H68       -77.8167   24.0049  -70.2106 H         1 UNK         0.0900 
     69 H69       -78.2723   25.6528  -69.7660 H         1 UNK         0.0900 
     70 H70       -79.3299   26.4234  -72.3691 H         1 UNK         0.2959 
     71 H71       -81.9998   25.2793  -72.2610 H         1 UNK         0.1079 
     72 H72       -80.7792   27.4112  -74.0833 H         1 UNK         0.0837 
     73 H73       -82.4686   26.9676  -74.0775 H         1 UNK         0.0837 
     74 H74       -81.4066   29.7649  -73.8901 H         1 UNK         0.0685 
     75 H75       -81.7424   30.5791  -72.3862 H         1 UNK         0.0685 
     76 H76       -79.6113   31.5063  -74.0710 H         1 UNK         0.1434 
     77 H77       -76.0276   30.9503  -71.7937 H         1 UNK         0.1329 
     78 H78       -79.4789   28.5669  -70.9453 H         1 UNK         0.1335 
     79 H79       -77.6905   28.6132  -69.3941 H         1 UNK         0.0680 
     80 H80       -76.4056   29.7729  -69.5290 H         1 UNK         0.0680 
     81 H81       -74.4272   29.6049  -70.7401 H         1 UNK         0.1032 
     82 H82       -73.5137   28.2038  -70.2817 H         1 UNK         0.1032 
     83 H83       -74.7262   28.6015  -73.0506 H         1 UNK         0.0461 
     84 H84       -71.1852   29.6338  -74.1402 H         1 UNK         0.3453 
     85 H85       -71.9410   28.0598  -74.2709 H         1 UNK         0.3453 
     86 H86       -74.2551   26.4502  -73.3509 H         1 UNK         0.2984 
     87 H87       -71.2632   24.6019  -72.8105 H         1 UNK         0.0554 
     88 H88       -72.8434   22.7718  -72.2141 H         1 UNK         0.0847 
     89 H89       -74.1124   23.9598  -71.8956 H         1 UNK         0.0847 
     90 H90       -72.6763   23.9093  -70.8892 H         1 UNK         0.0847 
     91 H91       -73.1812   23.6597  -74.3922 H         1 UNK         0.3141 
     92 H92       -71.7510   24.6641  -77.2346 H         1 UNK         0.0743 
     93 H93       -72.2625   22.5300  -75.9663 H         1 UNK         0.0784 
     94 H94       -73.9896   22.8751  -76.1261 H         1 UNK         0.0784 
     95 H95       -73.0033   22.5718  -77.5447 H         1 UNK         0.0784 
     96 H96       -74.3755   25.8325  -76.9153 H         1 UNK         0.3213 
     97 H97       -75.1382   25.5210  -80.4608 H         1 UNK         0.0855 
     98 H98       -76.3323   23.8290  -79.0873 H         1 UNK         0.0814 
     99 H99       -77.3431   25.2337  -79.3847 H         1 UNK         0.0814 
    100 H100      -76.5857   25.0097  -77.8109 H         1 UNK         0.0814 
    101 H101      -75.4947   27.3328  -78.1015 H         1 UNK         0.3105 
    102 H102      -75.0340   30.1819  -79.9332 H         1 UNK         0.0547 
    103 H103      -77.1542   29.8478  -81.1876 H         1 UNK         0.0837 
    104 H104      -77.9456   29.2354  -79.7429 H         1 UNK         0.0837 
    105 H105      -77.4145   30.9162  -79.8207 H         1 UNK         0.0837 
    106 H106      -76.7229   29.5431  -77.6297 H         1 UNK         0.3020 
    107 H107      -74.0929   29.2655  -75.3873 H         1 UNK         0.1245 
    108 H108      -74.1794   31.8009  -75.5120 H         1 UNK         0.0781 
    109 H109      -74.8584   31.1160  -74.0726 H         1 UNK         0.0781 
    110 H110      -77.8350   33.3133  -73.8296 H         1 UNK         0.0836 
    111 H111      -76.2637   32.9047  -73.2076 H         1 UNK         0.0836 
    112 H112      -76.8683   29.4754  -74.8788 H         1 UNK         0.3022 
    113 H113      -77.8661   27.3872  -74.1683 H         1 UNK         0.0747 
    114 H114      -79.6463   26.9858  -75.9868 H         1 UNK         0.0793 
    115 H115      -78.8711   28.5507  -76.1127 H         1 UNK         0.0793 
    116 H116      -78.4080   27.2463  -77.1988 H         1 UNK         0.0793 
    117 H117      -78.2517   25.0997  -75.7314 H         1 UNK         0.3047 
    118 H118      -76.6742   23.0404  -75.6240 H         1 UNK         0.0822 
    119 H119      -76.1669   21.3882  -73.8004 H         1 UNK         0.0807 
    120 H120      -76.1835   22.6882  -72.6108 H         1 UNK         0.0807 
    121 H121      -74.9574   22.6544  -73.8715 H         1 UNK         0.0807 
    122 H122      -78.6799   23.3064  -73.4310 H         1 UNK         0.2946 
    123 H123      -81.2659   22.2620  -75.4924 H         1 UNK         0.1144 
    124 H124      -81.9086   20.7431  -73.6236 H         1 UNK         0.0793 
    125 H125      -80.2499   20.7411  -73.0234 H         1 UNK         0.0793 
    126 H126      -80.6276   20.0206  -74.5827 H         1 UNK         0.0793 
    127 H127      -80.9598   23.0858  -72.7016 H         1 UNK         0.2896 
@<TRIPOS>BOND
     1    1    2 1    
     2    1   67 1    
     3    1   68 1    
     4    1   69 1    
     5    2    3 2    
     6    2    4 am   BACKBONE|DICT|INTERRES
     7    4    5 1    
     8    4   70 1    
     9    5    6 1    
    10    5   65 1    
    11    5   71 1    
    12    6    7 1    
    13    6   72 1    
    14    6   73 1    
    15    7    8 1    
    16    8    9 1    
    17    8   74 1    
    18    8   75 1    
    19    9   10 ar   
    20    9   14 ar   
    21   10   11 ar   
    22   10   76 1    
    23   11   12 ar   
    24   11   48 1    
    25   12   13 ar   
    26   12   77 1    
    27   13   14 ar   
    28   13   15 1    
    29   14   78 1    
    30   15   16 1    
    31   15   79 1    
    32   15   80 1    
    33   16   17 1    
    34   17   18 1    
    35   17   81 1    
    36   17   82 1    
    37   18   19 1    
    38   18   22 1    
    39   18   83 1    
    40   19   20 am   BACKBONE|DICT|INTERRES
    41   19   21 2    
    42   20   84 1    
    43   20   85 1    
    44   22   23 am   BACKBONE|DICT|INTERRES
    45   22   86 1    
    46   23   24 2    
    47   23   25 1    
    48   25   26 1    
    49   25   27 1    
    50   25   87 1    
    51   26   88 1    
    52   26   89 1    
    53   26   90 1    
    54   27   28 am   BACKBONE|DICT|INTERRES
    55   27   91 1    
    56   28   29 2    
    57   28   30 1    
    58   30   31 1    
    59   30   32 1    
    60   30   92 1    
    61   31   93 1    
    62   31   94 1    
    63   31   95 1    
    64   32   33 am   BACKBONE|DICT|INTERRES
    65   32   96 1    
    66   33   34 2    
    67   33   35 1    
    68   35   36 1    
    69   35   37 1    
    70   35   97 1    
    71   36   98 1    
    72   36   99 1    
    73   36  100 1    
    74   37   38 am   BACKBONE|DICT|INTERRES
    75   37  101 1    
    76   38   39 2    
    77   38   40 1    
    78   40   41 1    
    79   40   42 1    
    80   40  102 1    
    81   41  103 1    
    82   41  104 1    
    83   41  105 1    
    84   42   43 am   BACKBONE|DICT|INTERRES
    85   42  106 1    
    86   43   44 2    
    87   43   45 1    
    88   45   46 1    
    89   45   49 1    
    90   45  107 1    
    91   46   47 1    
    92   46  108 1    
    93   46  109 1    
    94   47   48 1    
    95   48  110 1    
    96   48  111 1    
    97   49   50 am   BACKBONE|DICT|INTERRES
    98   49  112 1    
    99   50   51 2    
   100   50   52 1    
   101   52   53 1    
   102   52   54 1    
   103   52  113 1    
   104   53  114 1    
   105   53  115 1    
   106   53  116 1    
   107   54   55 am   BACKBONE|DICT|INTERRES
   108   54  117 1    
   109   55   56 2    
   110   55   57 1    
   111   57   58 1    
   112   57   59 1    
   113   57  118 1    
   114   58  119 1    
   115   58  120 1    
   116   58  121 1    
   117   59   60 am   BACKBONE|DICT|INTERRES
   118   59  122 1    
   119   60   61 2    
   120   60   62 1    
   121   62   63 1    
   122   62   64 1    
   123   62  123 1    
   124   63  124 1    
   125   63  125 1    
   126   63  126 1    
   127   64   65 am   BACKBONE|DICT|INTERRES
   128   64  127 1    
   129   65   66 2    
@<TRIPOS>SUBSTRUCTURE
     1 UNK         1 GROUP             0       ****    0 ROOT    
