@<TRIPOS>MOLECULE
3R135
127   129    1
SMALL
USER_CHARGES


@<TRIPOS>ATOM
      1 CA        -83.8465   25.3610  -74.1047 C.3       0 UNK        -0.1998 
      2 C         -82.8789   26.4113  -74.6278 C.2       0 UNK         0.4909 
      3 O         -82.6993   26.5279  -75.8407 O.2       0 UNK        -0.5240 
      4 N         -82.2492   27.1760  -73.7244 N.am      1 UNK        -0.4739 
      5 CA        -81.2146   28.1648  -74.0467 C.3       1 UNK         0.0864 
      6 C6        -80.8676   29.0366  -72.8112 C.3       11 UNK        -0.0881 
      7 S7        -79.6542   30.3640  -73.1591 S.3       11 UNK        -0.2682 
      8 C8        -78.8417   30.5814  -71.5364 C.3       11 UNK         0.0289 
      9 C9        -77.6576   29.6514  -71.2558 C.ar      11 UNK        -0.0687 
     10 C10       -77.6028   28.3397  -71.7438 C.ar      11 UNK        -0.0823 
     11 C11       -76.5503   27.4897  -71.4019 C.ar      11 UNK        -0.0830 
     12 C12       -75.5219   27.9650  -70.5849 C.ar      11 UNK        -0.1021 
     13 C13       -75.5477   29.2748  -70.0964 C.ar      11 UNK        -0.0753 
     14 C14       -76.6236   30.1061  -70.4280 C.ar      11 UNK        -0.0933 
     15 C15       -74.4398   29.7671  -69.1696 C.3       11 UNK         0.0166 
     16 S16       -72.7824   29.6625  -69.9288 S.3       11 UNK        -0.2615 
     17 C17       -72.5240   31.3091  -70.6880 C.3       11 UNK        -0.0865 
     18 CA        -73.6848   31.8454  -71.5750 C.3       10 UNK         0.0862 
     19 C         -73.3939   33.2649  -72.1519 C.2       10 UNK         0.5551 
     20 N         -73.8911   33.6113  -73.3329 N.am      10 UNK        -0.7319 
     21 O         -72.7371   34.0786  -71.5065 O.2       10 UNK        -0.5018 
     22 N         -74.1645   30.8567  -72.5554 N.am      10 UNK        -0.4509 
     23 C         -73.4838   30.3553  -73.5915 C.2       10 UNK         0.4899 
     24 O         -72.3453   30.7004  -73.9166 O.2       10 UNK        -0.4839 
     25 CA        -74.2612   29.3320  -74.4323 C.3       9 UNK         0.0222 
     26 CB        -75.2770   30.0474  -75.3380 C.3       9 UNK        -0.1966 
     27 N         -73.4016   28.4962  -75.2689 N.am      9 UNK        -0.4218 
     28 C         -72.5748   27.5334  -74.8425 C.2       9 UNK         0.5020 
     29 O         -72.3703   27.2769  -73.6546 O.2       9 UNK        -0.5274 
     30 CA        -71.8932   26.6951  -75.9460 C.3       8 UNK         0.0270 
     31 CB        -71.0721   25.5206  -75.3814 C.3       8 UNK        -0.1976 
     32 N         -72.8746   26.1843  -76.9153 N.am      8 UNK        -0.4313 
     33 C         -73.3625   26.8968  -77.9426 C.2       8 UNK         0.5041 
     34 O         -72.9946   28.0495  -78.1773 O.2       8 UNK        -0.5577 
     35 CA        -74.4909   26.3057  -78.8082 C.3       7 UNK         0.0284 
     36 CB        -74.1936   26.4220  -80.3185 C.3       7 UNK        -0.1958 
     37 N         -74.9317   24.9600  -78.4309 N.am      7 UNK        -0.4454 
     38 C         -74.3085   23.7942  -78.6427 C.2       7 UNK         0.5089 
     39 O         -73.2231   23.6842  -79.2150 O.2       7 UNK        -0.5125 
     40 CA        -75.0239   22.5442  -78.0868 C.3       6 UNK         0.0408 
     41 CB        -74.1295   21.2875  -78.1239 C.3       6 UNK        -0.1791 
     42 N         -75.5772   22.7237  -76.7354 N.am      6 UNK        -0.4762 
     43 C         -74.9191   23.1591  -75.6479 C.2       6 UNK         0.5007 
     44 O         -73.7574   23.5652  -75.6796 O.2       6 UNK        -0.5032 
     45 CA        -75.6715   23.0980  -74.3055 C.3       5 UNK         0.0783 
     46 C46       -75.1125   24.0420  -73.2086 C.3       11 UNK        -0.0857 
     47 S47       -75.5959   25.7975  -73.3855 S.3       11 UNK        -0.2512 
     48 C48       -76.5548   26.0389  -71.8586 C.3       11 UNK         0.0225 
     49 N         -77.1192   23.2271  -74.4884 N.am      5 UNK        -0.4615 
     50 C         -78.0370   22.4952  -73.8444 C.2       4 UNK         0.5053 
     51 O         -77.7538   21.6014  -73.0460 O.2       4 UNK        -0.5105 
     52 CA        -79.5220   22.7950  -74.1221 C.3       4 UNK         0.0263 
     53 CB        -80.1866   23.4341  -72.8909 C.3       4 UNK        -0.1981 
     54 N         -79.7305   23.6556  -75.2898 N.am      4 UNK        -0.4224 
     55 C         -79.6566   23.2293  -76.5606 C.2       3 UNK         0.4895 
     56 O         -79.4225   22.0614  -76.8721 O.2       3 UNK        -0.5091 
     57 CA        -79.8513   24.2683  -77.6797 C.3       3 UNK         0.0250 
     58 CB        -81.2824   24.1966  -78.2354 C.3       3 UNK        -0.1996 
     59 N         -79.5617   25.6419  -77.2637 N.am      3 UNK        -0.4254 
     60 C         -78.3426   26.0981  -76.9431 C.2       2 UNK         0.5004 
     61 O         -77.3228   25.4095  -76.9929 O.2       2 UNK        -0.5226 
     62 CA        -78.2497   27.5514  -76.4453 C.3       2 UNK         0.0269 
     63 CB        -77.9789   28.5059  -77.6197 C.3       2 UNK        -0.1926 
     64 N         -79.4411   28.0266  -75.7359 N.am      2 UNK        -0.4687 
     65 C         -79.9781   27.4622  -74.6468 C.2       1 UNK         0.5165 
     66 O         -79.5468   26.4319  -74.1254 O.2       1 UNK        -0.5079 
     67 H67       -83.5376   24.3703  -74.4373 H         1 UNK         0.0900 
     68 H68       -83.8919   25.3543  -73.0159 H         1 UNK         0.0900 
     69 H69       -84.8492   25.5518  -74.4861 H         1 UNK         0.0900 
     70 H70       -82.4188   27.0206  -72.7411 H         1 UNK         0.2959 
     71 H71       -81.6339   28.8235  -74.8108 H         1 UNK         0.1079 
     72 H72       -80.5174   28.4120  -71.9883 H         1 UNK         0.0837 
     73 H73       -81.7748   29.5185  -72.4430 H         1 UNK         0.0837 
     74 H74       -79.5808   30.4654  -70.7426 H         1 UNK         0.0685 
     75 H75       -78.5033   31.6175  -71.4859 H         1 UNK         0.0685 
     76 H76       -78.3880   27.9539  -72.3705 H         1 UNK         0.1434 
     77 H77       -74.7042   27.3098  -70.3164 H         1 UNK         0.1329 
     78 H78       -76.6654   31.1092  -70.0256 H         1 UNK         0.1335 
     79 H79       -74.6254   30.7866  -68.8287 H         1 UNK         0.0680 
     80 H80       -74.4446   29.1449  -68.2737 H         1 UNK         0.0680 
     81 H81       -72.3181   32.0111  -69.8780 H         1 UNK         0.1032 
     82 H82       -71.6051   31.2592  -71.2747 H         1 UNK         0.1032 
     83 H83       -74.5332   32.0172  -70.9147 H         1 UNK         0.0461 
     84 H84       -73.7090   34.5338  -73.6955 H         1 UNK         0.3453 
     85 H85       -74.4346   32.9543  -73.8683 H         1 UNK         0.3453 
     86 H86       -75.0901   30.4942  -72.3741 H         1 UNK         0.2984 
     87 H87       -74.8038   28.6727  -73.7519 H         1 UNK         0.0554 
     88 H88       -76.0326   30.5708  -74.7505 H         1 UNK         0.0847 
     89 H89       -75.8004   29.3389  -75.9764 H         1 UNK         0.0847 
     90 H90       -74.7945   30.7818  -75.9845 H         1 UNK         0.0847 
     91 H91       -73.4394   28.6528  -76.2704 H         1 UNK         0.3141 
     92 H92       -71.1946   27.3562  -76.4635 H         1 UNK         0.0743 
     93 H93       -71.6834   24.8568  -74.7697 H         1 UNK         0.0784 
     94 H94       -70.2595   25.8832  -74.7507 H         1 UNK         0.0784 
     95 H95       -70.6247   24.9267  -76.1785 H         1 UNK         0.0784 
     96 H96       -73.2549   25.2619  -76.7230 H         1 UNK         0.3213 
     97 H97       -75.3537   26.9378  -78.6119 H         1 UNK         0.0855 
     98 H98       -73.2830   25.8920  -80.5983 H         1 UNK         0.0814 
     99 H99       -74.0570   27.4645  -80.6084 H         1 UNK         0.0814 
    100 H100      -75.0134   26.0260  -80.9177 H         1 UNK         0.0814 
    101 H101      -75.8035   24.9376  -77.9006 H         1 UNK         0.3105 
    102 H102      -75.8751   22.3646  -78.7452 H         1 UNK         0.0547 
    103 H103      -74.6654   20.4073  -77.7690 H         1 UNK         0.0837 
    104 H104      -73.2383   21.4094  -77.5071 H         1 UNK         0.0837 
    105 H105      -73.7956   21.0727  -79.1397 H         1 UNK         0.0837 
    106 H106      -76.5382   22.4333  -76.6146 H         1 UNK         0.3020 
    107 H107      -75.4625   22.0810  -73.9650 H         1 UNK         0.1245 
    108 H108      -74.0232   23.9916  -73.1608 H         1 UNK         0.0781 
    109 H109      -75.4480   23.6696  -72.2405 H         1 UNK         0.0781 
    110 H110      -76.1482   25.4241  -71.0548 H         1 UNK         0.0836 
    111 H111      -77.5753   25.6895  -72.0234 H         1 UNK         0.0836 
    112 H112      -77.4184   23.9615  -75.1177 H         1 UNK         0.3022 
    113 H113      -80.0157   21.8388  -74.3083 H         1 UNK         0.0747 
    114 H114      -81.2344   23.6683  -73.0781 H         1 UNK         0.0793 
    115 H115      -80.1538   22.7560  -72.0371 H         1 UNK         0.0793 
    116 H116      -79.6844   24.3532  -72.5897 H         1 UNK         0.0793 
    117 H117      -79.8652   24.6439  -75.1008 H         1 UNK         0.3047 
    118 H118      -79.1592   24.0111  -78.4847 H         1 UNK         0.0822 
    119 H119      -81.4194   24.8818  -79.0722 H         1 UNK         0.0807 
    120 H120      -82.0240   24.4425  -77.4745 H         1 UNK         0.0807 
    121 H121      -81.5100   23.1936  -78.5990 H         1 UNK         0.0807 
    122 H122      -80.3517   26.2651  -77.1632 H         1 UNK         0.2946 
    123 H123      -77.4128   27.5946  -75.7447 H         1 UNK         0.1144 
    124 H124      -77.8743   29.5367  -77.2805 H         1 UNK         0.0793 
    125 H125      -78.7845   28.4784  -78.3547 H         1 UNK         0.0793 
    126 H126      -77.0591   28.2477  -78.1397 H         1 UNK         0.0793 
    127 H127      -79.8590   28.8749  -76.0907 H         1 UNK         0.2896 
@<TRIPOS>BOND
     1    1    2 1    
     2    1   67 1    
     3    1   68 1    
     4    1   69 1    
     5    2    3 2    
     6    2    4 am   BACKBONE|DICT|INTERRES
     7    4    5 1    
     8    4   70 1    
     9    5    6 1    
    10    5   65 1    
    11    5   71 1    
    12    6    7 1    
    13    6   72 1    
    14    6   73 1    
    15    7    8 1    
    16    8    9 1    
    17    8   74 1    
    18    8   75 1    
    19    9   10 ar   
    20    9   14 ar   
    21   10   11 ar   
    22   10   76 1    
    23   11   12 ar   
    24   11   48 1    
    25   12   13 ar   
    26   12   77 1    
    27   13   14 ar   
    28   13   15 1    
    29   14   78 1    
    30   15   16 1    
    31   15   79 1    
    32   15   80 1    
    33   16   17 1    
    34   17   18 1    
    35   17   81 1    
    36   17   82 1    
    37   18   19 1    
    38   18   22 1    
    39   18   83 1    
    40   19   20 am   BACKBONE|DICT|INTERRES
    41   19   21 2    
    42   20   84 1    
    43   20   85 1    
    44   22   23 am   BACKBONE|DICT|INTERRES
    45   22   86 1    
    46   23   24 2    
    47   23   25 1    
    48   25   26 1    
    49   25   27 1    
    50   25   87 1    
    51   26   88 1    
    52   26   89 1    
    53   26   90 1    
    54   27   28 am   BACKBONE|DICT|INTERRES
    55   27   91 1    
    56   28   29 2    
    57   28   30 1    
    58   30   31 1    
    59   30   32 1    
    60   30   92 1    
    61   31   93 1    
    62   31   94 1    
    63   31   95 1    
    64   32   33 am   BACKBONE|DICT|INTERRES
    65   32   96 1    
    66   33   34 2    
    67   33   35 1    
    68   35   36 1    
    69   35   37 1    
    70   35   97 1    
    71   36   98 1    
    72   36   99 1    
    73   36  100 1    
    74   37   38 am   BACKBONE|DICT|INTERRES
    75   37  101 1    
    76   38   39 2    
    77   38   40 1    
    78   40   41 1    
    79   40   42 1    
    80   40  102 1    
    81   41  103 1    
    82   41  104 1    
    83   41  105 1    
    84   42   43 am   BACKBONE|DICT|INTERRES
    85   42  106 1    
    86   43   44 2    
    87   43   45 1    
    88   45   46 1    
    89   45   49 1    
    90   45  107 1    
    91   46   47 1    
    92   46  108 1    
    93   46  109 1    
    94   47   48 1    
    95   48  110 1    
    96   48  111 1    
    97   49   50 am   BACKBONE|DICT|INTERRES
    98   49  112 1    
    99   50   51 2    
   100   50   52 1    
   101   52   53 1    
   102   52   54 1    
   103   52  113 1    
   104   53  114 1    
   105   53  115 1    
   106   53  116 1    
   107   54   55 am   BACKBONE|DICT|INTERRES
   108   54  117 1    
   109   55   56 2    
   110   55   57 1    
   111   57   58 1    
   112   57   59 1    
   113   57  118 1    
   114   58  119 1    
   115   58  120 1    
   116   58  121 1    
   117   59   60 am   BACKBONE|DICT|INTERRES
   118   59  122 1    
   119   60   61 2    
   120   60   62 1    
   121   62   63 1    
   122   62   64 1    
   123   62  123 1    
   124   63  124 1    
   125   63  125 1    
   126   63  126 1    
   127   64   65 am   BACKBONE|DICT|INTERRES
   128   64  127 1    
   129   65   66 2    
@<TRIPOS>SUBSTRUCTURE
     1 UNK         1 GROUP             0       ****    0 ROOT    
