@<TRIPOS>MOLECULE
3R135
127   129    1
SMALL
USER_CHARGES


@<TRIPOS>ATOM
      1 CA        -80.3504   28.2146  -70.3446 C.3       0 UNK        -0.1998 
      2 C         -80.8325   28.0579  -71.7782 C.2       0 UNK         0.4909 
      3 O         -80.5147   27.0544  -72.4136 O.2       0 UNK        -0.5240 
      4 N         -81.6278   29.0254  -72.2597 N.am      1 UNK        -0.4739 
      5 CA        -82.1951   29.2308  -73.6088 C.3       1 UNK         0.0864 
      6 C6        -81.1637   29.8020  -74.6264 C.3       11 UNK        -0.0881 
      7 S7        -80.1782   28.5857  -75.5739 S.3       11 UNK        -0.2682 
      8 C8        -78.4853   29.2246  -75.3821 C.3       11 UNK         0.0289 
      9 C9        -77.8789   28.8368  -74.0430 C.ar      11 UNK        -0.0687 
     10 C10       -77.5422   27.5049  -73.7975 C.ar      11 UNK        -0.0823 
     11 C11       -76.9835   27.1220  -72.5757 C.ar      11 UNK        -0.0830 
     12 C12       -76.7527   28.0905  -71.5926 C.ar      11 UNK        -0.1021 
     13 C13       -77.1081   29.4260  -71.8176 C.ar      11 UNK        -0.0753 
     14 C14       -77.6629   29.7936  -73.0484 C.ar      11 UNK        -0.0933 
     15 C15       -76.9811   30.4600  -70.7073 C.3       11 UNK         0.0166 
     16 S16       -75.8276   31.8058  -71.1226 S.3       11 UNK        -0.2615 
     17 C17       -74.2118   31.0831  -70.6807 C.3       11 UNK        -0.0865 
     18 CA        -73.2443   31.0101  -71.8901 C.3       10 UNK         0.0862 
     19 C         -71.7848   30.7260  -71.4205 C.2       10 UNK         0.5551 
     20 N         -71.1227   29.6607  -71.8549 N.am      10 UNK        -0.7319 
     21 O         -71.2348   31.5015  -70.6421 O.2       10 UNK        -0.5018 
     22 N         -73.7517   30.0967  -72.9250 N.am      10 UNK        -0.4509 
     23 C         -73.3641   30.0989  -74.2039 C.2       10 UNK         0.4899 
     24 O         -72.6082   30.9351  -74.7031 O.2       10 UNK        -0.4839 
     25 CA        -73.9060   28.9491  -75.0689 C.3       9 UNK         0.0222 
     26 CB        -74.8830   29.4822  -76.1272 C.3       9 UNK        -0.1966 
     27 N         -72.8395   28.1846  -75.7268 N.am      9 UNK        -0.4218 
     28 C         -71.7875   27.6181  -75.1123 C.2       9 UNK         0.5020 
     29 O         -71.6222   27.6502  -73.8914 O.2       9 UNK        -0.5274 
     30 CA        -70.7610   26.8590  -75.9766 C.3       8 UNK         0.0270 
     31 CB        -70.3174   25.5474  -75.3016 C.3       8 UNK        -0.1976 
     32 N         -71.2562   26.5560  -77.3224 N.am      8 UNK        -0.4313 
     33 C         -71.0738   27.3351  -78.3984 C.2       8 UNK         0.5041 
     34 O         -70.4653   28.4050  -78.3651 O.2       8 UNK        -0.5577 
     35 CA        -71.6679   26.8620  -79.7400 C.3       7 UNK         0.0284 
     36 CB        -70.5636   26.2839  -80.6404 C.3       7 UNK        -0.1958 
     37 N         -72.7420   25.8736  -79.6079 N.am      7 UNK        -0.4454 
     38 C         -73.9446   26.1142  -79.0696 C.2       7 UNK         0.5089 
     39 O         -74.2849   27.2143  -78.6332 O.2       7 UNK        -0.5125 
     40 CA        -74.9237   24.9278  -78.9541 C.3       6 UNK         0.0408 
     41 CB        -74.4786   23.6551  -79.7105 C.3       6 UNK        -0.1791 
     42 N         -75.2145   24.6107  -77.5515 N.am      6 UNK        -0.4762 
     43 C         -74.3234   24.3135  -76.5899 C.2       6 UNK         0.5007 
     44 O         -73.1083   24.2470  -76.7831 O.2       6 UNK        -0.5032 
     45 CA        -74.8762   24.0684  -75.1691 C.3       5 UNK         0.0783 
     46 C46       -74.7753   25.3764  -74.3519 C.3       11 UNK        -0.0857 
     47 S47       -74.9883   25.1577  -72.5570 S.3       11 UNK        -0.2512 
     48 C48       -76.7177   25.6488  -72.2962 C.3       11 UNK         0.0225 
     49 N         -76.2402   23.5177  -75.2164 N.am      5 UNK        -0.4615 
     50 C         -76.5095   22.2466  -75.5423 C.2       4 UNK         0.5053 
     51 O         -75.6378   21.3830  -75.6567 O.2       4 UNK        -0.5105 
     52 CA        -77.9841   21.8870  -75.8175 C.3       4 UNK         0.0263 
     53 CB        -78.1685   20.4074  -76.2069 C.3       4 UNK        -0.1981 
     54 N         -78.8797   22.1907  -74.6993 N.am      4 UNK        -0.4224 
     55 C         -79.3809   23.3978  -74.4138 C.2       3 UNK         0.4895 
     56 O         -79.0383   24.4317  -74.9930 O.2       3 UNK        -0.5091 
     57 CA        -80.4131   23.4462  -73.2766 C.3       3 UNK         0.0250 
     58 CB        -79.7350   23.6395  -71.9105 C.3       3 UNK        -0.1996 
     59 N         -81.3766   24.5272  -73.4828 N.am      3 UNK        -0.4254 
     60 C         -82.5149   24.4068  -74.1844 C.2       2 UNK         0.5004 
     61 O         -82.8580   23.3572  -74.7318 O.2       2 UNK        -0.5226 
     62 CA        -83.4527   25.6258  -74.2892 C.3       2 UNK         0.0269 
     63 CB        -84.7793   25.3703  -73.5495 C.3       2 UNK        -0.1926 
     64 N         -82.8381   26.8508  -73.7824 N.am      2 UNK        -0.4687 
     65 C         -83.0737   28.0958  -74.1981 C.2       1 UNK         0.5165 
     66 O         -83.9499   28.3784  -75.0178 O.2       1 UNK        -0.5079 
     67 H67       -79.2952   27.9547  -70.2743 H         1 UNK         0.0900 
     68 H68       -80.9076   27.5482  -69.6870 H         1 UNK         0.0900 
     69 H69       -80.4697   29.2360  -69.9842 H         1 UNK         0.0900 
     70 H70       -81.8685   29.7683  -71.6182 H         1 UNK         0.2959 
     71 H71       -82.9109   30.0374  -73.4396 H         1 UNK         0.1079 
     72 H72       -80.4953   30.4992  -74.1194 H         1 UNK         0.0837 
     73 H73       -81.6950   30.4061  -75.3639 H         1 UNK         0.0837 
     74 H74       -77.8708   28.8093  -76.1816 H         1 UNK         0.0685 
     75 H75       -78.4779   30.3065  -75.5225 H         1 UNK         0.0685 
     76 H76       -77.7524   26.7605  -74.5530 H         1 UNK         0.1434 
     77 H77       -76.3441   27.7932  -70.6365 H         1 UNK         0.1329 
     78 H78       -77.9441   30.8233  -73.2211 H         1 UNK         0.1335 
     79 H79       -77.9657   30.8953  -70.5310 H         1 UNK         0.0680 
     80 H80       -76.6863   29.9968  -69.7644 H         1 UNK         0.0680 
     81 H81       -74.3431   30.0938  -70.2391 H         1 UNK         0.1032 
     82 H82       -73.7947   31.7094  -69.8895 H         1 UNK         0.1032 
     83 H83       -73.2086   32.0069  -72.3343 H         1 UNK         0.0461 
     84 H84       -71.5292   29.0151  -72.5259 H         1 UNK         0.3453 
     85 H85       -70.1809   29.5082  -71.5325 H         1 UNK         0.3453 
     86 H86       -74.3877   29.3796  -72.6075 H         1 UNK         0.2984 
     87 H87       -74.4524   28.2617  -74.4216 H         1 UNK         0.0554 
     88 H88       -75.3932   28.6675  -76.6407 H         1 UNK         0.0847 
     89 H89       -75.6496   30.1088  -75.6701 H         1 UNK         0.0847 
     90 H90       -74.3739   30.0878  -76.8780 H         1 UNK         0.0847 
     91 H91       -72.9019   28.1028  -76.7324 H         1 UNK         0.3141 
     92 H92       -69.8810   27.5011  -76.0515 H         1 UNK         0.0743 
     93 H93       -69.8238   25.7443  -74.3491 H         1 UNK         0.0784 
     94 H94       -71.1631   24.8905  -75.0972 H         1 UNK         0.0784 
     95 H95       -69.6082   24.9999  -75.9226 H         1 UNK         0.0784 
     96 H96       -71.8081   25.7074  -77.4126 H         1 UNK         0.3213 
     97 H97       -72.0850   27.7424  -80.2341 H         1 UNK         0.0855 
     98 H98       -69.7613   27.0085  -80.7881 H         1 UNK         0.0814 
     99 H99       -70.9485   26.0261  -81.6272 H         1 UNK         0.0814 
    100 H100      -70.1167   25.3881  -80.2073 H         1 UNK         0.0814 
    101 H101      -72.5363   24.9343  -79.9161 H         1 UNK         0.3105 
    102 H102      -75.8614   25.2641  -79.3987 H         1 UNK         0.0547 
    103 H103      -74.3127   23.8608  -80.7689 H         1 UNK         0.0837 
    104 H104      -73.5621   23.2265  -79.3037 H         1 UNK         0.0837 
    105 H105      -75.2476   22.8844  -79.6567 H         1 UNK         0.0837 
    106 H106      -76.1861   24.6785  -77.2846 H         1 UNK         0.3020 
    107 H107      -74.2197   23.3295  -74.7028 H         1 UNK         0.1245 
    108 H108      -73.7779   25.7986  -74.4617 H         1 UNK         0.0781 
    109 H109      -75.4589   26.1286  -74.7410 H         1 UNK         0.0781 
    110 H110      -76.9949   25.4197  -71.2664 H         1 UNK         0.0836 
    111 H111      -77.3506   25.0255  -72.9254 H         1 UNK         0.0836 
    112 H112      -77.0190   24.1592  -75.1124 H         1 UNK         0.3022 
    113 H113      -78.2933   22.4860  -76.6771 H         1 UNK         0.0747 
    114 H114      -79.2050   20.1911  -76.4665 H         1 UNK         0.0793 
    115 H115      -77.5616   20.1519  -77.0769 H         1 UNK         0.0793 
    116 H116      -77.8775   19.7367  -75.3974 H         1 UNK         0.0793 
    117 H117      -79.1701   21.4024  -74.1382 H         1 UNK         0.3047 
    118 H118      -80.9424   22.4908  -73.2560 H         1 UNK         0.0822 
    119 H119      -80.4420   23.4695  -71.0984 H         1 UNK         0.0807 
    120 H120      -79.3449   24.6498  -71.7930 H         1 UNK         0.0807 
    121 H121      -78.9073   22.9430  -71.7697 H         1 UNK         0.0807 
    122 H122      -81.0826   25.4346  -73.1330 H         1 UNK         0.2946 
    123 H123      -83.6643   25.7571  -75.3529 H         1 UNK         0.1144 
    124 H124      -85.4814   26.1912  -73.6965 H         1 UNK         0.0793 
    125 H125      -84.6224   25.2506  -72.4769 H         1 UNK         0.0793 
    126 H126      -85.2642   24.4634  -73.9133 H         1 UNK         0.0793 
    127 H127      -82.0495   26.7513  -73.1471 H         1 UNK         0.2896 
@<TRIPOS>BOND
     1    1    2 1    
     2    1   67 1    
     3    1   68 1    
     4    1   69 1    
     5    2    3 2    
     6    2    4 am   BACKBONE|DICT|INTERRES
     7    4    5 1    
     8    4   70 1    
     9    5    6 1    
    10    5   65 1    
    11    5   71 1    
    12    6    7 1    
    13    6   72 1    
    14    6   73 1    
    15    7    8 1    
    16    8    9 1    
    17    8   74 1    
    18    8   75 1    
    19    9   10 ar   
    20    9   14 ar   
    21   10   11 ar   
    22   10   76 1    
    23   11   12 ar   
    24   11   48 1    
    25   12   13 ar   
    26   12   77 1    
    27   13   14 ar   
    28   13   15 1    
    29   14   78 1    
    30   15   16 1    
    31   15   79 1    
    32   15   80 1    
    33   16   17 1    
    34   17   18 1    
    35   17   81 1    
    36   17   82 1    
    37   18   19 1    
    38   18   22 1    
    39   18   83 1    
    40   19   20 am   BACKBONE|DICT|INTERRES
    41   19   21 2    
    42   20   84 1    
    43   20   85 1    
    44   22   23 am   BACKBONE|DICT|INTERRES
    45   22   86 1    
    46   23   24 2    
    47   23   25 1    
    48   25   26 1    
    49   25   27 1    
    50   25   87 1    
    51   26   88 1    
    52   26   89 1    
    53   26   90 1    
    54   27   28 am   BACKBONE|DICT|INTERRES
    55   27   91 1    
    56   28   29 2    
    57   28   30 1    
    58   30   31 1    
    59   30   32 1    
    60   30   92 1    
    61   31   93 1    
    62   31   94 1    
    63   31   95 1    
    64   32   33 am   BACKBONE|DICT|INTERRES
    65   32   96 1    
    66   33   34 2    
    67   33   35 1    
    68   35   36 1    
    69   35   37 1    
    70   35   97 1    
    71   36   98 1    
    72   36   99 1    
    73   36  100 1    
    74   37   38 am   BACKBONE|DICT|INTERRES
    75   37  101 1    
    76   38   39 2    
    77   38   40 1    
    78   40   41 1    
    79   40   42 1    
    80   40  102 1    
    81   41  103 1    
    82   41  104 1    
    83   41  105 1    
    84   42   43 am   BACKBONE|DICT|INTERRES
    85   42  106 1    
    86   43   44 2    
    87   43   45 1    
    88   45   46 1    
    89   45   49 1    
    90   45  107 1    
    91   46   47 1    
    92   46  108 1    
    93   46  109 1    
    94   47   48 1    
    95   48  110 1    
    96   48  111 1    
    97   49   50 am   BACKBONE|DICT|INTERRES
    98   49  112 1    
    99   50   51 2    
   100   50   52 1    
   101   52   53 1    
   102   52   54 1    
   103   52  113 1    
   104   53  114 1    
   105   53  115 1    
   106   53  116 1    
   107   54   55 am   BACKBONE|DICT|INTERRES
   108   54  117 1    
   109   55   56 2    
   110   55   57 1    
   111   57   58 1    
   112   57   59 1    
   113   57  118 1    
   114   58  119 1    
   115   58  120 1    
   116   58  121 1    
   117   59   60 am   BACKBONE|DICT|INTERRES
   118   59  122 1    
   119   60   61 2    
   120   60   62 1    
   121   62   63 1    
   122   62   64 1    
   123   62  123 1    
   124   63  124 1    
   125   63  125 1    
   126   63  126 1    
   127   64   65 am   BACKBONE|DICT|INTERRES
   128   64  127 1    
   129   65   66 2    
@<TRIPOS>SUBSTRUCTURE
     1 UNK         1 GROUP             0       ****    0 ROOT    
