@<TRIPOS>MOLECULE
3R135
127   129    1
SMALL
USER_CHARGES


@<TRIPOS>ATOM
      1 CA        -83.5194   27.6841  -70.3920 C.3       0 UNK        -0.1998 
      2 C         -83.7238   27.4265  -71.8773 C.2       0 UNK         0.4909 
      3 O         -84.6045   26.6514  -72.2505 O.2       0 UNK        -0.5240 
      4 N         -82.9139   28.0717  -72.7272 N.am      1 UNK        -0.4739 
      5 CA        -82.9349   27.9274  -74.1896 C.3       1 UNK         0.0864 
      6 C6        -82.2218   29.1131  -74.8942 C.3       11 UNK        -0.0881 
      7 S7        -80.4284   29.2284  -74.5616 S.3       11 UNK        -0.2682 
      8 C8        -80.3798   30.3204  -73.1039 C.3       11 UNK         0.0289 
      9 C9        -79.2077   29.9591  -72.2048 C.ar      11 UNK        -0.0687 
     10 C10       -79.1611   28.7069  -71.5843 C.ar      11 UNK        -0.0823 
     11 C11       -78.0598   28.3376  -70.8077 C.ar      11 UNK        -0.0830 
     12 C12       -77.0207   29.2516  -70.6079 C.ar      11 UNK        -0.1021 
     13 C13       -77.0527   30.5027  -71.2320 C.ar      11 UNK        -0.0753 
     14 C14       -78.1510   30.8544  -72.0223 C.ar      11 UNK        -0.0933 
     15 C15       -75.8781   31.4582  -71.1054 C.3       11 UNK         0.0166 
     16 S16       -74.7142   31.2364  -72.4889 S.3       11 UNK        -0.2615 
     17 C17       -73.8615   29.6980  -72.0001 C.3       11 UNK        -0.0865 
     18 CA        -72.4430   29.6095  -72.6231 C.3       10 UNK         0.0862 
     19 C         -71.5284   28.5834  -71.8876 C.2       10 UNK         0.5551 
     20 N         -70.7031   27.8025  -72.5739 N.am      10 UNK        -0.7319 
     21 O         -71.5489   28.5038  -70.6618 O.2       10 UNK        -0.5018 
     22 N         -72.5151   29.3941  -74.0780 N.am      10 UNK        -0.4509 
     23 C         -71.7035   29.9532  -74.9821 C.2       10 UNK         0.4899 
     24 O         -70.8532   30.8039  -74.7135 O.2       10 UNK        -0.4839 
     25 CA        -71.8514   29.4291  -76.4249 C.3       9 UNK         0.0222 
     26 CB        -70.7905   29.9997  -77.3892 C.3       9 UNK        -0.1966 
     27 N         -71.8668   27.9615  -76.4839 N.am      9 UNK        -0.4218 
     28 C         -70.9324   27.1166  -76.0184 C.2       9 UNK         0.5020 
     29 O         -69.8806   27.4842  -75.4934 O.2       9 UNK        -0.5274 
     30 CA        -71.2214   25.6054  -76.0941 C.3       8 UNK         0.0270 
     31 CB        -71.4198   25.0318  -74.6810 C.3       8 UNK        -0.1976 
     32 N         -72.3855   25.2644  -76.9153 N.am      8 UNK        -0.4313 
     33 C         -72.4005   25.2838  -78.2549 C.2       8 UNK         0.5041 
     34 O         -71.4156   25.5434  -78.9473 O.2       8 UNK        -0.5577 
     35 CA        -73.7462   24.9930  -78.9384 C.3       7 UNK         0.0284 
     36 CB        -73.9763   23.4775  -79.0512 C.3       7 UNK        -0.1958 
     37 N         -74.8847   25.6189  -78.2583 N.am      7 UNK        -0.4454 
     38 C         -75.0732   26.9418  -78.1399 C.2       7 UNK         0.5089 
     39 O         -74.3078   27.7871  -78.6030 O.2       7 UNK        -0.5125 
     40 CA        -76.2945   27.4032  -77.3260 C.3       6 UNK         0.0408 
     41 CB        -77.5929   27.2510  -78.1331 C.3       6 UNK        -0.1791 
     42 N         -76.4167   26.6948  -76.0519 N.am      6 UNK        -0.4762 
     43 C         -75.5220   26.7671  -75.0549 C.2       6 UNK         0.5007 
     44 O         -74.5151   27.4773  -75.0768 O.2       6 UNK        -0.5032 
     45 CA        -75.7832   25.8771  -73.8274 C.3       5 UNK         0.0783 
     46 C46       -76.7749   26.5770  -72.8722 C.3       11 UNK        -0.0857 
     47 S47       -76.7061   25.9130  -71.1727 S.3       11 UNK        -0.2512 
     48 C48       -77.9512   26.9143  -70.2752 C.3       11 UNK         0.0225 
     49 N         -76.2286   24.5351  -74.2163 N.am      5 UNK        -0.4615 
     50 C         -75.4847   23.6597  -74.9075 C.2       4 UNK         0.5053 
     51 O         -74.3285   23.8754  -75.2671 O.2       4 UNK        -0.5105 
     52 CA        -76.1628   22.3410  -75.3108 C.3       4 UNK         0.0263 
     53 CB        -76.2294   21.3743  -74.1177 C.3       4 UNK        -0.1981 
     54 N         -77.5053   22.5459  -75.8585 N.am      4 UNK        -0.4224 
     55 C         -77.7726   23.2237  -76.9850 C.2       3 UNK         0.4895 
     56 O         -76.9109   23.7089  -77.7155 O.2       3 UNK        -0.5091 
     57 CA        -79.2537   23.4346  -77.3371 C.3       3 UNK         0.0250 
     58 CB        -79.7773   22.2676  -78.1888 C.3       3 UNK        -0.1996 
     59 N         -80.1115   23.6121  -76.1617 N.am      3 UNK        -0.4254 
     60 C         -80.0000   24.6181  -75.2833 C.2       2 UNK         0.5004 
     61 O         -79.1385   25.4991  -75.3484 O.2       2 UNK        -0.5226 
     62 CA        -80.9767   24.5935  -74.0978 C.3       2 UNK         0.0269 
     63 CB        -80.2595   24.1136  -72.8245 C.3       2 UNK        -0.1926 
     64 N         -81.5687   25.9056  -73.8452 N.am      2 UNK        -0.4687 
     65 C         -82.4106   26.5520  -74.6662 C.2       1 UNK         0.5165 
     66 O         -82.8005   26.0955  -75.7425 O.2       1 UNK        -0.5079 
     67 H67       -82.7069   28.3865  -70.2063 H         1 UNK         0.0900 
     68 H68       -83.2852   26.7519  -69.8787 H         1 UNK         0.0900 
     69 H69       -84.4288   28.0949  -69.9543 H         1 UNK         0.0900 
     70 H70       -82.2195   28.7068  -72.3650 H         1 UNK         0.2959 
     71 H71       -83.9834   27.9635  -74.4950 H         1 UNK         0.1079 
     72 H72       -82.3545   29.0327  -75.9749 H         1 UNK         0.0837 
     73 H73       -82.6992   30.0543  -74.6165 H         1 UNK         0.0837 
     74 H74       -80.3118   31.3553  -73.4428 H         1 UNK         0.0685 
     75 H75       -81.3018   30.2492  -72.5281 H         1 UNK         0.0685 
     76 H76       -79.9580   27.9976  -71.7548 H         1 UNK         0.1434 
     77 H77       -76.1593   28.9621  -70.0216 H         1 UNK         0.1329 
     78 H78       -78.1667   31.8153  -72.5183 H         1 UNK         0.1335 
     79 H79       -75.3651   31.3211  -70.1523 H         1 UNK         0.0680 
     80 H80       -76.2389   32.4879  -71.1108 H         1 UNK         0.0680 
     81 H81       -74.4669   28.8378  -72.2891 H         1 UNK         0.1032 
     82 H82       -73.8076   29.6801  -70.9103 H         1 UNK         0.1032 
     83 H83       -71.9592   30.5705  -72.4390 H         1 UNK         0.0461 
     84 H84       -70.1150   27.1578  -72.0710 H         1 UNK         0.3453 
     85 H85       -70.6082   27.8900  -73.5777 H         1 UNK         0.3453 
     86 H86       -73.1837   28.6967  -74.3957 H         1 UNK         0.2984 
     87 H87       -72.8307   29.7592  -76.7746 H         1 UNK         0.0554 
     88 H88       -70.9427   29.6346  -78.4049 H         1 UNK         0.0847 
     89 H89       -69.7786   29.7307  -77.0841 H         1 UNK         0.0847 
     90 H90       -70.8408   31.0885  -77.4254 H         1 UNK         0.0847 
     91 H91       -72.7149   27.5570  -76.8607 H         1 UNK         0.3141 
     92 H92       -70.3415   25.1295  -76.5322 H         1 UNK         0.0743 
     93 H93       -72.2718   25.4904  -74.1772 H         1 UNK         0.0784 
     94 H94       -71.5861   23.9548  -74.7089 H         1 UNK         0.0784 
     95 H95       -70.5404   25.2045  -74.0594 H         1 UNK         0.0784 
     96 H96       -73.2207   24.9650  -76.4163 H         1 UNK         0.3213 
     97 H97       -73.6982   25.4058  -79.9484 H         1 UNK         0.0855 
     98 H98       -74.0789   23.0111  -78.0704 H         1 UNK         0.0814 
     99 H99       -73.1431   22.9912  -79.5603 H         1 UNK         0.0814 
    100 H100      -74.8783   23.2556  -79.6217 H         1 UNK         0.0814 
    101 H101      -75.5910   24.9877  -77.8830 H         1 UNK         0.3105 
    102 H102      -76.1629   28.4634  -77.0994 H         1 UNK         0.0547 
    103 H103      -77.5455   27.8275  -79.0577 H         1 UNK         0.0837 
    104 H104      -77.7822   26.2133  -78.4063 H         1 UNK         0.0837 
    105 H105      -78.4544   27.6102  -77.5692 H         1 UNK         0.0837 
    106 H106      -77.2448   26.1215  -75.9191 H         1 UNK         0.3020 
    107 H107      -74.8243   25.7705  -73.3146 H         1 UNK         0.1245 
    108 H108      -76.5367   27.6403  -72.8180 H         1 UNK         0.0781 
    109 H109      -77.7973   26.5167  -73.2487 H         1 UNK         0.0781 
    110 H110      -78.9155   26.4079  -70.3395 H         1 UNK         0.0836 
    111 H111      -77.6924   26.9389  -69.2158 H         1 UNK         0.0836 
    112 H112      -77.1837   24.2991  -73.9944 H         1 UNK         0.3022 
    113 H113      -75.5519   21.8801  -76.0901 H         1 UNK         0.0747 
    114 H114      -76.6286   20.4044  -74.4152 H         1 UNK         0.0793 
    115 H115      -75.2354   21.1996  -73.7031 H         1 UNK         0.0793 
    116 H116      -76.8544   21.7624  -73.3124 H         1 UNK         0.0793 
    117 H117      -78.2797   22.1752  -75.3282 H         1 UNK         0.3047 
    118 H118      -79.3211   24.3474  -77.9324 H         1 UNK         0.0822 
    119 H119      -80.7985   22.4482  -78.5252 H         1 UNK         0.0807 
    120 H120      -79.7654   21.3257  -77.6389 H         1 UNK         0.0807 
    121 H121      -79.1644   22.1315  -79.0812 H         1 UNK         0.0807 
    122 H122      -80.8431   22.9278  -76.0319 H         1 UNK         0.2946 
    123 H123      -81.7912   23.9006  -74.3210 H         1 UNK         0.1144 
    124 H124      -79.8216   23.1250  -72.9688 H         1 UNK         0.0793 
    125 H125      -80.9504   24.0391  -71.9844 H         1 UNK         0.0793 
    126 H126      -79.4531   24.7882  -72.5348 H         1 UNK         0.0793 
    127 H127      -81.2935   26.3722  -72.9956 H         1 UNK         0.2896 
@<TRIPOS>BOND
     1    1    2 1    
     2    1   67 1    
     3    1   68 1    
     4    1   69 1    
     5    2    3 2    
     6    2    4 am   BACKBONE|DICT|INTERRES
     7    4    5 1    
     8    4   70 1    
     9    5    6 1    
    10    5   65 1    
    11    5   71 1    
    12    6    7 1    
    13    6   72 1    
    14    6   73 1    
    15    7    8 1    
    16    8    9 1    
    17    8   74 1    
    18    8   75 1    
    19    9   10 ar   
    20    9   14 ar   
    21   10   11 ar   
    22   10   76 1    
    23   11   12 ar   
    24   11   48 1    
    25   12   13 ar   
    26   12   77 1    
    27   13   14 ar   
    28   13   15 1    
    29   14   78 1    
    30   15   16 1    
    31   15   79 1    
    32   15   80 1    
    33   16   17 1    
    34   17   18 1    
    35   17   81 1    
    36   17   82 1    
    37   18   19 1    
    38   18   22 1    
    39   18   83 1    
    40   19   20 am   BACKBONE|DICT|INTERRES
    41   19   21 2    
    42   20   84 1    
    43   20   85 1    
    44   22   23 am   BACKBONE|DICT|INTERRES
    45   22   86 1    
    46   23   24 2    
    47   23   25 1    
    48   25   26 1    
    49   25   27 1    
    50   25   87 1    
    51   26   88 1    
    52   26   89 1    
    53   26   90 1    
    54   27   28 am   BACKBONE|DICT|INTERRES
    55   27   91 1    
    56   28   29 2    
    57   28   30 1    
    58   30   31 1    
    59   30   32 1    
    60   30   92 1    
    61   31   93 1    
    62   31   94 1    
    63   31   95 1    
    64   32   33 am   BACKBONE|DICT|INTERRES
    65   32   96 1    
    66   33   34 2    
    67   33   35 1    
    68   35   36 1    
    69   35   37 1    
    70   35   97 1    
    71   36   98 1    
    72   36   99 1    
    73   36  100 1    
    74   37   38 am   BACKBONE|DICT|INTERRES
    75   37  101 1    
    76   38   39 2    
    77   38   40 1    
    78   40   41 1    
    79   40   42 1    
    80   40  102 1    
    81   41  103 1    
    82   41  104 1    
    83   41  105 1    
    84   42   43 am   BACKBONE|DICT|INTERRES
    85   42  106 1    
    86   43   44 2    
    87   43   45 1    
    88   45   46 1    
    89   45   49 1    
    90   45  107 1    
    91   46   47 1    
    92   46  108 1    
    93   46  109 1    
    94   47   48 1    
    95   48  110 1    
    96   48  111 1    
    97   49   50 am   BACKBONE|DICT|INTERRES
    98   49  112 1    
    99   50   51 2    
   100   50   52 1    
   101   52   53 1    
   102   52   54 1    
   103   52  113 1    
   104   53  114 1    
   105   53  115 1    
   106   53  116 1    
   107   54   55 am   BACKBONE|DICT|INTERRES
   108   54  117 1    
   109   55   56 2    
   110   55   57 1    
   111   57   58 1    
   112   57   59 1    
   113   57  118 1    
   114   58  119 1    
   115   58  120 1    
   116   58  121 1    
   117   59   60 am   BACKBONE|DICT|INTERRES
   118   59  122 1    
   119   60   61 2    
   120   60   62 1    
   121   62   63 1    
   122   62   64 1    
   123   62  123 1    
   124   63  124 1    
   125   63  125 1    
   126   63  126 1    
   127   64   65 am   BACKBONE|DICT|INTERRES
   128   64  127 1    
   129   65   66 2    
@<TRIPOS>SUBSTRUCTURE
     1 UNK         1 GROUP             0       ****    0 ROOT    
