@<TRIPOS>MOLECULE
3R135
127   129    1
SMALL
USER_CHARGES


@<TRIPOS>ATOM
      1 CA        -80.6096   30.7738  -77.9040 C.3       0 UNK        -0.1998 
      2 C         -79.6807   29.8337  -77.1511 C.2       0 UNK         0.4909 
      3 O         -78.5059   29.7278  -77.4987 O.2       0 UNK        -0.5240 
      4 N         -80.1987   29.1527  -76.1210 N.am      1 UNK        -0.4739 
      5 CA        -79.4560   28.1989  -75.2842 C.3       1 UNK         0.0864 
      6 C6        -80.2015   27.9121  -73.9591 C.3       11 UNK        -0.0881 
      7 S7        -80.3646   29.4135  -72.9336 S.3       11 UNK        -0.2682 
      8 C8        -80.2092   28.7448  -71.2472 C.3       11 UNK         0.0289 
      9 C9        -78.8069   28.2296  -70.9555 C.ar      11 UNK        -0.0687 
     10 C10       -78.5539   26.8541  -70.9328 C.ar      11 UNK        -0.0823 
     11 C11       -77.2729   26.3692  -70.6561 C.ar      11 UNK        -0.0830 
     12 C12       -76.2468   27.2783  -70.3759 C.ar      11 UNK        -0.1021 
     13 C13       -76.4811   28.6550  -70.4116 C.ar      11 UNK        -0.0753 
     14 C14       -77.7653   29.1272  -70.6979 C.ar      11 UNK        -0.0933 
     15 C15       -75.3331   29.6178  -70.1539 C.3       11 UNK         0.0166 
     16 S16       -74.2995   29.7855  -71.6413 S.3       11 UNK        -0.2615 
     17 C17       -72.7855   30.5551  -70.9685 C.3       11 UNK        -0.0865 
     18 CA        -72.4192   31.9054  -71.6543 C.3       10 UNK         0.0862 
     19 C         -71.1896   32.5937  -70.9851 C.2       10 UNK         0.5551 
     20 N         -70.3337   33.2861  -71.7271 N.am      10 UNK        -0.7319 
     21 O         -71.0233   32.5285  -69.7693 O.2       10 UNK        -0.5018 
     22 N         -72.3504   31.8234  -73.1275 N.am      10 UNK        -0.4509 
     23 C         -71.5427   31.0312  -73.8442 C.2       10 UNK         0.4899 
     24 O         -70.7137   30.2559  -73.3629 O.2       10 UNK        -0.4839 
     25 CA        -71.6554   31.1591  -75.3723 C.3       9 UNK         0.0222 
     26 CB        -70.4657   31.9523  -75.9380 C.3       9 UNK        -0.1966 
     27 N         -71.7163   29.8465  -76.0185 N.am      9 UNK        -0.4218 
     28 C         -72.7719   29.0248  -75.9578 C.2       9 UNK         0.5020 
     29 O         -73.8175   29.2938  -75.3606 O.2       9 UNK        -0.5274 
     30 CA        -72.6284   27.6699  -76.6774 C.3       8 UNK         0.0270 
     31 CB        -71.9892   26.6316  -75.7410 C.3       8 UNK        -0.1976 
     32 N         -73.9273   27.1695  -77.1365 N.am      8 UNK        -0.4313 
     33 C         -74.6619   27.7479  -78.0987 C.2       8 UNK         0.5041 
     34 O         -74.2350   28.6471  -78.8271 O.2       8 UNK        -0.5577 
     35 CA        -76.1210   27.2742  -78.2473 C.3       7 UNK         0.0284 
     36 CB        -76.7326   27.5841  -79.6306 C.3       7 UNK        -0.1958 
     37 N         -76.3335   25.8735  -77.8734 N.am      7 UNK        -0.4454 
     38 C         -75.8418   24.7854  -78.4811 C.2       7 UNK         0.5089 
     39 O         -75.1306   24.8218  -79.4865 O.2       7 UNK        -0.5125 
     40 CA        -76.2156   23.4257  -77.8528 C.3       6 UNK         0.0408 
     41 CB        -75.2396   22.3033  -78.2632 C.3       6 UNK        -0.1791 
     42 N         -76.3668   23.4448  -76.3894 N.am      6 UNK        -0.4762 
     43 C         -75.4514   23.8419  -75.4896 C.2       6 UNK         0.5007 
     44 O         -74.3979   24.3989  -75.7998 O.2       6 UNK        -0.5032 
     45 CA        -75.7222   23.5523  -73.9994 C.3       5 UNK         0.0783 
     46 C46       -75.6320   24.8263  -73.1267 C.3       11 UNK        -0.0857 
     47 S47       -75.4190   24.3812  -71.3688 S.3       11 UNK        -0.2512 
     48 C48       -77.0235   24.8634  -70.6476 C.3       11 UNK         0.0225 
     49 N         -76.9826   22.8384  -73.7726 N.am      5 UNK        -0.4615 
     50 C         -77.1259   21.5106  -73.7585 C.2       4 UNK         0.5053 
     51 O         -76.2166   20.7252  -74.0261 O.2       4 UNK        -0.5105 
     52 CA        -78.5086   20.9530  -73.3728 C.3       4 UNK         0.0263 
     53 CB        -78.6920   20.9529  -71.8421 C.3       4 UNK        -0.1981 
     54 N         -79.6517   21.5848  -74.0498 N.am      4 UNK        -0.4224 
     55 C         -80.1058   22.8422  -73.9512 C.2       3 UNK         0.4895 
     56 O         -79.5877   23.7219  -73.2593 O.2       3 UNK        -0.5091 
     57 CA        -81.3512   23.1788  -74.7860 C.3       3 UNK         0.0250 
     58 CB        -82.4902   23.6902  -73.8879 C.3       3 UNK        -0.1996 
     59 N         -81.0462   24.1882  -75.7978 N.am      3 UNK        -0.4254 
     60 C         -80.2226   24.0137  -76.8411 C.2       2 UNK         0.5004 
     61 O         -79.6704   22.9470  -77.1107 O.2       2 UNK        -0.5226 
     62 CA        -79.9573   25.2455  -77.7249 C.3       2 UNK         0.0269 
     63 CB        -80.9457   25.2939  -78.9000 C.3       2 UNK        -0.1926 
     64 N         -80.0204   26.5096  -76.9840 N.am      2 UNK        -0.4687 
     65 C         -79.1634   26.8741  -76.0176 C.2       1 UNK         0.5165 
     66 O         -78.1798   26.2044  -75.6971 O.2       1 UNK        -0.5079 
     67 H67       -80.2260   31.7928  -77.8611 H         1 UNK         0.0900 
     68 H68       -81.6168   30.7729  -77.4877 H         1 UNK         0.0900 
     69 H69       -80.6742   30.4776  -78.9506 H         1 UNK         0.0900 
     70 H70       -81.1611   29.3089  -75.8561 H         1 UNK         0.2959 
     71 H71       -78.4862   28.6409  -75.0424 H         1 UNK         0.1079 
     72 H72       -81.1992   27.5122  -74.1492 H         1 UNK         0.0837 
     73 H73       -79.6734   27.1436  -73.3936 H         1 UNK         0.0837 
     74 H74       -80.4582   29.5316  -70.5338 H         1 UNK         0.0685 
     75 H75       -80.9511   27.9577  -71.1025 H         1 UNK         0.0685 
     76 H76       -79.3563   26.1576  -71.1376 H         1 UNK         0.1434 
     77 H77       -75.2519   26.9185  -70.1522 H         1 UNK         0.1329 
     78 H78       -77.9549   30.1915  -70.7280 H         1 UNK         0.1335 
     79 H79       -75.7051   30.5993  -69.8559 H         1 UNK         0.0680 
     80 H80       -74.7303   29.2447  -69.3244 H         1 UNK         0.0680 
     81 H81       -72.9137   30.7051  -69.8951 H         1 UNK         0.1032 
     82 H82       -71.9669   29.8409  -71.0681 H         1 UNK         0.1032 
     83 H83       -73.2459   32.5883  -71.4552 H         1 UNK         0.0461 
     84 H84       -69.5480   33.7372  -71.2853 H         1 UNK         0.3453 
     85 H85       -70.4646   33.3575  -72.7229 H         1 UNK         0.3453 
     86 H86       -72.9881   32.4318  -73.6205 H         1 UNK         0.2984 
     87 H87       -72.5720   31.6996  -75.6190 H         1 UNK         0.0554 
     88 H88       -70.5500   32.0810  -77.0173 H         1 UNK         0.0847 
     89 H89       -69.5148   31.4589  -75.7312 H         1 UNK         0.0847 
     90 H90       -70.4165   32.9493  -75.4983 H         1 UNK         0.0847 
     91 H91       -70.8798   29.5340  -76.4901 H         1 UNK         0.3141 
     92 H92       -71.9859   27.7998  -77.5509 H         1 UNK         0.0743 
     93 H93       -72.5999   26.4623  -74.8528 H         1 UNK         0.0784 
     94 H94       -71.8571   25.6727  -76.2428 H         1 UNK         0.0784 
     95 H95       -71.0055   26.9594  -75.4025 H         1 UNK         0.0784 
     96 H96       -74.3296   26.4049  -76.6065 H         1 UNK         0.3213 
     97 H97       -76.6773   27.8565  -77.5131 H         1 UNK         0.0855 
     98 H98       -76.7164   28.6563  -79.8299 H         1 UNK         0.0814 
     99 H99       -77.7738   27.2657  -79.6826 H         1 UNK         0.0814 
    100 H100      -76.1862   27.0949  -80.4371 H         1 UNK         0.0814 
    101 H101      -76.8895   25.7373  -77.0315 H         1 UNK         0.3105 
    102 H102      -77.1953   23.1693  -78.2570 H         1 UNK         0.0547 
    103 H103      -75.2164   22.1774  -79.3463 H         1 UNK         0.0837 
    104 H104      -74.2209   22.5178  -77.9382 H         1 UNK         0.0837 
    105 H105      -75.5337   21.3451  -77.8350 H         1 UNK         0.0837 
    106 H106      -77.2221   23.0387  -76.0340 H         1 UNK         0.3020 
    107 H107      -74.8993   22.8982  -73.7003 H         1 UNK         0.1245 
    108 H108      -76.5115   25.4587  -73.2649 H         1 UNK         0.0781 
    109 H109      -74.7718   25.4388  -73.4037 H         1 UNK         0.0781 
    110 H110      -77.0627   24.5115  -69.6162 H         1 UNK         0.0836 
    111 H111      -77.8156   24.3388  -71.1838 H         1 UNK         0.0836 
    112 H112      -77.8002   23.4022  -73.5487 H         1 UNK         0.3022 
    113 H113      -78.5201   19.9113  -73.6982 H         1 UNK         0.0747 
    114 H114      -79.6271   20.4718  -71.5553 H         1 UNK         0.0793 
    115 H115      -77.8837   20.4069  -71.3538 H         1 UNK         0.0793 
    116 H116      -78.6945   21.9617  -71.4288 H         1 UNK         0.0793 
    117 H117      -80.1350   20.9768  -74.6972 H         1 UNK         0.3047 
    118 H118      -81.6982   22.2788  -75.2983 H         1 UNK         0.0822 
    119 H119      -83.3944   23.8858  -74.4646 H         1 UNK         0.0807 
    120 H120      -82.2162   24.6107  -73.3700 H         1 UNK         0.0807 
    121 H121      -82.7460   22.9527  -73.1259 H         1 UNK         0.0807 
    122 H122      -81.4327   25.1078  -75.6495 H         1 UNK         0.2946 
    123 H123      -78.9531   25.1398  -78.1358 H         1 UNK         0.1144 
    124 H124      -80.9039   24.3723  -79.4824 H         1 UNK         0.0793 
    125 H125      -80.7137   26.1145  -79.5793 H         1 UNK         0.0793 
    126 H126      -81.9746   25.4183  -78.5600 H         1 UNK         0.0793 
    127 H127      -80.7831   27.1341  -77.2040 H         1 UNK         0.2896 
@<TRIPOS>BOND
     1    1    2 1    
     2    1   67 1    
     3    1   68 1    
     4    1   69 1    
     5    2    3 2    
     6    2    4 am   BACKBONE|DICT|INTERRES
     7    4    5 1    
     8    4   70 1    
     9    5    6 1    
    10    5   65 1    
    11    5   71 1    
    12    6    7 1    
    13    6   72 1    
    14    6   73 1    
    15    7    8 1    
    16    8    9 1    
    17    8   74 1    
    18    8   75 1    
    19    9   10 ar   
    20    9   14 ar   
    21   10   11 ar   
    22   10   76 1    
    23   11   12 ar   
    24   11   48 1    
    25   12   13 ar   
    26   12   77 1    
    27   13   14 ar   
    28   13   15 1    
    29   14   78 1    
    30   15   16 1    
    31   15   79 1    
    32   15   80 1    
    33   16   17 1    
    34   17   18 1    
    35   17   81 1    
    36   17   82 1    
    37   18   19 1    
    38   18   22 1    
    39   18   83 1    
    40   19   20 am   BACKBONE|DICT|INTERRES
    41   19   21 2    
    42   20   84 1    
    43   20   85 1    
    44   22   23 am   BACKBONE|DICT|INTERRES
    45   22   86 1    
    46   23   24 2    
    47   23   25 1    
    48   25   26 1    
    49   25   27 1    
    50   25   87 1    
    51   26   88 1    
    52   26   89 1    
    53   26   90 1    
    54   27   28 am   BACKBONE|DICT|INTERRES
    55   27   91 1    
    56   28   29 2    
    57   28   30 1    
    58   30   31 1    
    59   30   32 1    
    60   30   92 1    
    61   31   93 1    
    62   31   94 1    
    63   31   95 1    
    64   32   33 am   BACKBONE|DICT|INTERRES
    65   32   96 1    
    66   33   34 2    
    67   33   35 1    
    68   35   36 1    
    69   35   37 1    
    70   35   97 1    
    71   36   98 1    
    72   36   99 1    
    73   36  100 1    
    74   37   38 am   BACKBONE|DICT|INTERRES
    75   37  101 1    
    76   38   39 2    
    77   38   40 1    
    78   40   41 1    
    79   40   42 1    
    80   40  102 1    
    81   41  103 1    
    82   41  104 1    
    83   41  105 1    
    84   42   43 am   BACKBONE|DICT|INTERRES
    85   42  106 1    
    86   43   44 2    
    87   43   45 1    
    88   45   46 1    
    89   45   49 1    
    90   45  107 1    
    91   46   47 1    
    92   46  108 1    
    93   46  109 1    
    94   47   48 1    
    95   48  110 1    
    96   48  111 1    
    97   49   50 am   BACKBONE|DICT|INTERRES
    98   49  112 1    
    99   50   51 2    
   100   50   52 1    
   101   52   53 1    
   102   52   54 1    
   103   52  113 1    
   104   53  114 1    
   105   53  115 1    
   106   53  116 1    
   107   54   55 am   BACKBONE|DICT|INTERRES
   108   54  117 1    
   109   55   56 2    
   110   55   57 1    
   111   57   58 1    
   112   57   59 1    
   113   57  118 1    
   114   58  119 1    
   115   58  120 1    
   116   58  121 1    
   117   59   60 am   BACKBONE|DICT|INTERRES
   118   59  122 1    
   119   60   61 2    
   120   60   62 1    
   121   62   63 1    
   122   62   64 1    
   123   62  123 1    
   124   63  124 1    
   125   63  125 1    
   126   63  126 1    
   127   64   65 am   BACKBONE|DICT|INTERRES
   128   64  127 1    
   129   65   66 2    
@<TRIPOS>SUBSTRUCTURE
     1 UNK         1 GROUP             0       ****    0 ROOT    
