@<TRIPOS>MOLECULE
3R135
127   129    1
SMALL
USER_CHARGES


@<TRIPOS>ATOM
      1 CA        -83.1127   26.7358  -68.2707 C.3       0 UNK        -0.1998 
      2 C         -83.7836   26.3696  -69.5858 C.2       0 UNK         0.4909 
      3 O         -84.8241   25.7115  -69.5814 O.2       0 UNK        -0.5240 
      4 N         -83.1934   26.7869  -70.7136 N.am      1 UNK        -0.4739 
      5 CA        -83.6918   26.5186  -72.0702 C.3       1 UNK         0.0864 
      6 C6        -83.1973   27.5880  -73.0769 C.3       11 UNK        -0.0881 
      7 S7        -81.3818   27.6369  -73.2925 S.3       11 UNK        -0.2682 
      8 C8        -80.9727   29.2735  -72.6193 C.3       11 UNK         0.0289 
      9 C9        -79.5582   29.6753  -73.0040 C.ar      11 UNK        -0.0687 
     10 C10       -79.3289   30.3374  -74.2141 C.ar      11 UNK        -0.0823 
     11 C11       -78.0370   30.7287  -74.5775 C.ar      11 UNK        -0.0830 
     12 C12       -76.9724   30.4593  -73.7131 C.ar      11 UNK        -0.1021 
     13 C13       -77.1857   29.7791  -72.5114 C.ar      11 UNK        -0.0753 
     14 C14       -78.4817   29.3910  -72.1578 C.ar      11 UNK        -0.0933 
     15 C15       -76.0054   29.4644  -71.6090 C.3       11 UNK         0.0166 
     16 S16       -75.0349   28.0869  -72.2875 S.3       11 UNK        -0.2615 
     17 C17       -73.5431   28.1747  -71.2407 C.3       11 UNK        -0.0865 
     18 CA        -72.4248   29.0863  -71.8187 C.3       10 UNK         0.0862 
     19 C         -71.1694   29.0207  -70.9000 C.2       10 UNK         0.5551 
     20 N         -70.1074   28.3208  -71.2833 N.am      10 UNK        -0.7319 
     21 O         -71.1669   29.6098  -69.8221 O.2       10 UNK        -0.5018 
     22 N         -72.1669   28.7924  -73.2360 N.am      10 UNK        -0.4509 
     23 C         -71.3589   29.4690  -74.0627 C.2       10 UNK         0.4899 
     24 O         -70.7897   30.5161  -73.7518 O.2       10 UNK        -0.4839 
     25 CA        -71.1551   28.8860  -75.4798 C.3       9 UNK         0.0222 
     26 CB        -69.6845   28.9768  -75.9379 C.3       9 UNK        -0.1966 
     27 N         -71.6730   27.5192  -75.6555 N.am      9 UNK        -0.4218 
     28 C         -71.2873   26.4100  -75.0023 C.2       9 UNK         0.5020 
     29 O         -70.3791   26.3797  -74.1702 O.2       9 UNK        -0.5274 
     30 CA        -72.0960   25.1322  -75.2666 C.3       8 UNK         0.0270 
     31 CB        -73.3496   25.1030  -74.3743 C.3       8 UNK        -0.1976 
     32 N         -72.4971   24.9786  -76.6640 N.am      8 UNK        -0.4313 
     33 C         -71.6714   24.6496  -77.6658 C.2       8 UNK         0.5041 
     34 O         -70.4599   24.4736  -77.5302 O.2       8 UNK        -0.5577 
     35 CA        -72.3091   24.4710  -79.0505 C.3       7 UNK         0.0284 
     36 CB        -73.0351   23.1184  -79.1444 C.3       7 UNK        -0.1958 
     37 N         -73.2496   25.5522  -79.3451 N.am      7 UNK        -0.4454 
     38 C         -72.9192   26.6868  -79.9751 C.2       7 UNK         0.5089 
     39 O         -71.7924   26.9246  -80.4117 O.2       7 UNK        -0.5125 
     40 CA        -74.0286   27.7376  -80.1710 C.3       6 UNK         0.0408 
     41 CB        -74.6256   27.6250  -81.5830 C.3       6 UNK        -0.1791 
     42 N         -75.1124   27.6717  -79.1858 N.am      6 UNK        -0.4762 
     43 C         -74.9738   27.9493  -77.8814 C.2       6 UNK         0.5007 
     44 O         -73.8956   28.2095  -77.3464 O.2       6 UNK        -0.5032 
     45 CA        -76.2534   27.8693  -77.0197 C.3       5 UNK         0.0783 
     46 C46       -77.2137   29.0541  -77.3115 C.3       11 UNK        -0.0857 
     47 S47       -76.5001   30.6902  -76.9152 S.3       11 UNK        -0.2512 
     48 C48       -77.8009   31.4585  -75.8940 C.3       11 UNK         0.0225 
     49 N         -76.9638   26.5830  -77.1197 N.am      5 UNK        -0.4615 
     50 C         -76.4316   25.3521  -77.1312 C.2       4 UNK         0.5053 
     51 O         -75.2238   25.1137  -77.1538 O.2       4 UNK        -0.5105 
     52 CA        -77.4200   24.1839  -77.0335 C.3       4 UNK         0.0263 
     53 CB        -76.8548   22.8891  -77.6463 C.3       4 UNK        -0.1981 
     54 N         -77.6965   23.9623  -75.6171 N.am      4 UNK        -0.4224 
     55 C         -78.6952   24.5390  -74.9407 C.2       3 UNK         0.4895 
     56 O         -79.5795   25.2192  -75.4656 O.2       3 UNK        -0.5091 
     57 CA        -78.6508   24.3829  -73.4144 C.3       3 UNK         0.0250 
     58 CB        -77.9958   25.6196  -72.7758 C.3       3 UNK        -0.1996 
     59 N         -79.9891   24.2006  -72.8545 N.am      3 UNK        -0.4254 
     60 C         -80.6702   23.0459  -72.8781 C.2       2 UNK         0.5004 
     61 O         -80.2324   22.0105  -73.3824 O.2       2 UNK        -0.5226 
     62 CA        -82.0531   23.0159  -72.2013 C.3       2 UNK         0.0269 
     63 CB        -82.0070   22.1546  -70.9272 C.3       2 UNK        -0.1926 
     64 N         -82.5302   24.3534  -71.8410 N.am      2 UNK        -0.4687 
     65 C         -83.3881   25.0848  -72.5655 C.2       1 UNK         0.5165 
     66 O         -83.9251   24.6771  -73.5969 O.2       1 UNK        -0.5079 
     67 H67       -83.7916   27.3255  -67.6553 H         1 UNK         0.0900 
     68 H68       -82.2035   27.3169  -68.4239 H         1 UNK         0.0900 
     69 H69       -82.8499   25.8334  -67.7193 H         1 UNK         0.0900 
     70 H70       -82.3386   27.3228  -70.6638 H         1 UNK         0.2959 
     71 H71       -84.7817   26.5917  -72.0410 H         1 UNK         0.1079 
     72 H72       -83.6470   27.4189  -74.0573 H         1 UNK         0.0837 
     73 H73       -83.5569   28.5697  -72.7654 H         1 UNK         0.0837 
     74 H74       -81.0866   29.2625  -71.5344 H         1 UNK         0.0685 
     75 H75       -81.6778   30.0149  -72.9985 H         1 UNK         0.0685 
     76 H76       -80.1615   30.5473  -74.8718 H         1 UNK         0.1434 
     77 H77       -75.9696   30.7595  -73.9856 H         1 UNK         0.1329 
     78 H78       -78.6526   28.8646  -71.2287 H         1 UNK         0.1335 
     79 H79       -76.3403   29.2120  -70.6017 H         1 UNK         0.0680 
     80 H80       -75.3733   30.3491  -71.5179 H         1 UNK         0.0680 
     81 H81       -73.8275   28.5049  -70.2395 H         1 UNK         0.1032 
     82 H82       -73.1722   27.1545  -71.1221 H         1 UNK         0.1032 
     83 H83       -72.7828   30.1166  -71.7796 H         1 UNK         0.0461 
     84 H84       -70.1133   27.8272  -72.1648 H         1 UNK         0.3453 
     85 H85       -69.2968   28.2810  -70.6860 H         1 UNK         0.3453 
     86 H86       -72.6131   27.9613  -73.5914 H         1 UNK         0.2984 
     87 H87       -71.7459   29.5146  -76.1472 H         1 UNK         0.0554 
     88 H88       -69.5585   28.5808  -76.9455 H         1 UNK         0.0847 
     89 H89       -69.0178   28.4251  -75.2745 H         1 UNK         0.0847 
     90 H90       -69.3413   30.0119  -75.9534 H         1 UNK         0.0847 
     91 H91       -72.4581   27.4542  -76.2999 H         1 UNK         0.3141 
     92 H92       -71.4670   24.2805  -74.9984 H         1 UNK         0.0743 
     93 H93       -73.0847   25.1995  -73.3204 H         1 UNK         0.0784 
     94 H94       -74.0382   25.9146  -74.6144 H         1 UNK         0.0784 
     95 H95       -73.8924   24.1643  -74.4867 H         1 UNK         0.0784 
     96 H96       -73.4930   25.0746  -76.8650 H         1 UNK         0.3213 
     97 H97       -71.5065   24.4689  -79.7917 H         1 UNK         0.0855 
     98 H98       -73.8500   23.0419  -78.4242 H         1 UNK         0.0814 
     99 H99       -72.3483   22.2942  -78.9472 H         1 UNK         0.0814 
    100 H100      -73.4522   22.9613  -80.1392 H         1 UNK         0.0814 
    101 H101      -74.1798   25.4695  -78.9528 H         1 UNK         0.3105 
    102 H102      -73.5607   28.7202  -80.0798 H         1 UNK         0.0547 
    103 H103      -75.1320   26.6706  -81.7329 H         1 UNK         0.0837 
    104 H104      -75.3434   28.4222  -81.7767 H         1 UNK         0.0837 
    105 H105      -73.8471   27.7026  -82.3434 H         1 UNK         0.0837 
    106 H106      -76.0307   27.4324  -79.5318 H         1 UNK         0.3020 
    107 H107      -75.9322   27.9513  -75.9784 H         1 UNK         0.1245 
    108 H108      -78.1321   28.9269  -76.7364 H         1 UNK         0.0781 
    109 H109      -77.5216   29.0571  -78.3587 H         1 UNK         0.0781 
    110 H110      -77.5123   32.4875  -75.6754 H         1 UNK         0.0836 
    111 H111      -78.7190   31.5157  -76.4810 H         1 UNK         0.0836 
    112 H112      -77.9711   26.6430  -77.0627 H         1 UNK         0.3022 
    113 H113      -78.3331   24.4448  -77.5731 H         1 UNK         0.0747 
    114 H114      -76.5873   23.0376  -78.6933 H         1 UNK         0.0793 
    115 H115      -77.5890   22.0841  -77.6104 H         1 UNK         0.0793 
    116 H116      -75.9601   22.5456  -77.1255 H         1 UNK         0.0793 
    117 H117      -76.9915   23.4525  -75.1036 H         1 UNK         0.3047 
    118 H118      -78.0487   23.5072  -73.1611 H         1 UNK         0.0822 
    119 H119      -76.9747   25.7507  -73.1368 H         1 UNK         0.0807 
    120 H120      -77.9454   25.5320  -71.6905 H         1 UNK         0.0807 
    121 H121      -78.5397   26.5342  -73.0145 H         1 UNK         0.0807 
    122 H122      -80.4486   25.0263  -72.5002 H         1 UNK         0.2946 
    123 H123      -82.7448   22.5466  -72.9049 H         1 UNK         0.1144 
    124 H124      -81.6890   21.1359  -71.1541 H         1 UNK         0.0793 
    125 H125      -82.9892   22.0881  -70.4588 H         1 UNK         0.0793 
    126 H126      -81.3102   22.5573  -70.1909 H         1 UNK         0.0793 
    127 H127      -82.1554   24.7624  -70.9972 H         1 UNK         0.2896 
@<TRIPOS>BOND
     1    1    2 1    
     2    1   67 1    
     3    1   68 1    
     4    1   69 1    
     5    2    3 2    
     6    2    4 am   BACKBONE|DICT|INTERRES
     7    4    5 1    
     8    4   70 1    
     9    5    6 1    
    10    5   65 1    
    11    5   71 1    
    12    6    7 1    
    13    6   72 1    
    14    6   73 1    
    15    7    8 1    
    16    8    9 1    
    17    8   74 1    
    18    8   75 1    
    19    9   10 ar   
    20    9   14 ar   
    21   10   11 ar   
    22   10   76 1    
    23   11   12 ar   
    24   11   48 1    
    25   12   13 ar   
    26   12   77 1    
    27   13   14 ar   
    28   13   15 1    
    29   14   78 1    
    30   15   16 1    
    31   15   79 1    
    32   15   80 1    
    33   16   17 1    
    34   17   18 1    
    35   17   81 1    
    36   17   82 1    
    37   18   19 1    
    38   18   22 1    
    39   18   83 1    
    40   19   20 am   BACKBONE|DICT|INTERRES
    41   19   21 2    
    42   20   84 1    
    43   20   85 1    
    44   22   23 am   BACKBONE|DICT|INTERRES
    45   22   86 1    
    46   23   24 2    
    47   23   25 1    
    48   25   26 1    
    49   25   27 1    
    50   25   87 1    
    51   26   88 1    
    52   26   89 1    
    53   26   90 1    
    54   27   28 am   BACKBONE|DICT|INTERRES
    55   27   91 1    
    56   28   29 2    
    57   28   30 1    
    58   30   31 1    
    59   30   32 1    
    60   30   92 1    
    61   31   93 1    
    62   31   94 1    
    63   31   95 1    
    64   32   33 am   BACKBONE|DICT|INTERRES
    65   32   96 1    
    66   33   34 2    
    67   33   35 1    
    68   35   36 1    
    69   35   37 1    
    70   35   97 1    
    71   36   98 1    
    72   36   99 1    
    73   36  100 1    
    74   37   38 am   BACKBONE|DICT|INTERRES
    75   37  101 1    
    76   38   39 2    
    77   38   40 1    
    78   40   41 1    
    79   40   42 1    
    80   40  102 1    
    81   41  103 1    
    82   41  104 1    
    83   41  105 1    
    84   42   43 am   BACKBONE|DICT|INTERRES
    85   42  106 1    
    86   43   44 2    
    87   43   45 1    
    88   45   46 1    
    89   45   49 1    
    90   45  107 1    
    91   46   47 1    
    92   46  108 1    
    93   46  109 1    
    94   47   48 1    
    95   48  110 1    
    96   48  111 1    
    97   49   50 am   BACKBONE|DICT|INTERRES
    98   49  112 1    
    99   50   51 2    
   100   50   52 1    
   101   52   53 1    
   102   52   54 1    
   103   52  113 1    
   104   53  114 1    
   105   53  115 1    
   106   53  116 1    
   107   54   55 am   BACKBONE|DICT|INTERRES
   108   54  117 1    
   109   55   56 2    
   110   55   57 1    
   111   57   58 1    
   112   57   59 1    
   113   57  118 1    
   114   58  119 1    
   115   58  120 1    
   116   58  121 1    
   117   59   60 am   BACKBONE|DICT|INTERRES
   118   59  122 1    
   119   60   61 2    
   120   60   62 1    
   121   62   63 1    
   122   62   64 1    
   123   62  123 1    
   124   63  124 1    
   125   63  125 1    
   126   63  126 1    
   127   64   65 am   BACKBONE|DICT|INTERRES
   128   64  127 1    
   129   65   66 2    
@<TRIPOS>SUBSTRUCTURE
     1 UNK         1 GROUP             0       ****    0 ROOT    
