@<TRIPOS>MOLECULE
3R135
127   129    1
SMALL
USER_CHARGES


@<TRIPOS>ATOM
      1 CA        -83.4089   23.4563  -71.8431 C.3       0 UNK        -0.1998 
      2 C         -82.7896   24.7722  -72.2882 C.2       0 UNK         0.4909 
      3 O         -83.4647   25.5853  -72.9217 O.2       0 UNK        -0.5240 
      4 N         -81.5088   24.9915  -71.9649 N.am      1 UNK        -0.4739 
      5 CA        -80.7412   26.1864  -72.3267 C.3       1 UNK         0.0864 
      6 C6        -79.5072   26.3858  -71.4063 C.3       11 UNK        -0.0881 
      7 S7        -79.9545   26.9882  -69.7471 S.3       11 UNK        -0.2682 
      8 C8        -80.3061   28.7517  -70.0653 C.3       11 UNK         0.0289 
      9 C9        -79.1191   29.5106  -70.6483 C.ar      11 UNK        -0.0687 
     10 C10       -79.0821   29.8363  -72.0098 C.ar      11 UNK        -0.0823 
     11 C11       -78.0187   30.5790  -72.5345 C.ar      11 UNK        -0.0830 
     12 C12       -76.9950   31.0058  -71.6830 C.ar      11 UNK        -0.1021 
     13 C13       -77.0094   30.6696  -70.3267 C.ar      11 UNK        -0.0753 
     14 C14       -78.0740   29.9208  -69.8157 C.ar      11 UNK        -0.0933 
     15 C15       -75.8918   31.1336  -69.4049 C.3       11 UNK         0.0166 
     16 S16       -74.4506   30.0222  -69.4883 S.3       11 UNK        -0.2615 
     17 C17       -73.2710   30.9665  -70.5196 C.3       11 UNK        -0.0865 
     18 CA        -73.1963   30.4874  -71.9931 C.3       10 UNK         0.0862 
     19 C         -72.1775   31.3518  -72.7862 C.2       10 UNK         0.5551 
     20 N         -72.6449   32.3622  -73.5064 N.am      10 UNK        -0.7319 
     21 O         -70.9681   31.1447  -72.7075 O.2       10 UNK        -0.5018 
     22 N         -72.9206   29.0466  -72.0796 N.am      10 UNK        -0.4509 
     23 C         -72.9267   28.3284  -73.2078 C.2       10 UNK         0.4899 
     24 O         -73.1513   28.7990  -74.3236 O.2       10 UNK        -0.4839 
     25 CA        -72.6942   26.8172  -73.0338 C.3       9 UNK         0.0222 
     26 CB        -73.9093   26.1547  -72.3586 C.3       9 UNK        -0.1966 
     27 N         -72.4108   26.1375  -74.3040 N.am      9 UNK        -0.4218 
     28 C         -71.2400   26.2274  -74.9515 C.2       9 UNK         0.5020 
     29 O         -70.3007   26.9154  -74.5459 O.2       9 UNK        -0.5274 
     30 CA        -71.0184   25.3893  -76.2232 C.3       8 UNK         0.0270 
     31 CB        -70.1382   24.1665  -75.8810 C.3       8 UNK        -0.1976 
     32 N         -72.2380   24.9530  -76.9196 N.am      8 UNK        -0.4313 
     33 C         -72.2393   24.4971  -78.1817 C.2       8 UNK         0.5041 
     34 O         -71.2471   24.5037  -78.9130 O.2       8 UNK        -0.5577 
     35 CA        -73.5479   23.8983  -78.7214 C.3       7 UNK         0.0284 
     36 CB        -73.9130   22.6007  -77.9803 C.3       7 UNK        -0.1958 
     37 N         -74.6681   24.8370  -78.6835 N.am      7 UNK        -0.4454 
     38 C         -74.8053   25.8858  -79.5075 C.2       7 UNK         0.5089 
     39 O         -74.0011   26.1730  -80.3948 O.2       7 UNK        -0.5125 
     40 CA        -76.0592   26.7602  -79.3247 C.3       6 UNK         0.0408 
     41 CB        -77.2320   26.1910  -80.1382 C.3       6 UNK        -0.1791 
     42 N         -76.4566   26.9030  -77.9226 N.am      6 UNK        -0.4762 
     43 C         -75.7367   27.5581  -76.9989 C.2       6 UNK         0.5007 
     44 O         -74.7095   28.1839  -77.2615 O.2       6 UNK        -0.5032 
     45 CA        -76.2093   27.4423  -75.5346 C.3       5 UNK         0.0783 
     46 C46       -77.3034   28.4788  -75.1719 C.3       11 UNK        -0.0857 
     47 S47       -76.6347   30.1550  -74.9200 S.3       11 UNK        -0.2512 
     48 C48       -77.9917   30.9635  -74.0093 C.3       11 UNK         0.0225 
     49 N         -76.6419   26.0817  -75.2110 N.am      5 UNK        -0.4615 
     50 C         -75.8732   24.9861  -75.2218 C.2       4 UNK         0.5053 
     51 O         -74.6698   24.9884  -75.4827 O.2       4 UNK        -0.5105 
     52 CA        -76.5717   23.6587  -74.8993 C.3       4 UNK         0.0263 
     53 CB        -76.7054   23.4721  -73.3798 C.3       4 UNK        -0.1981 
     54 N         -77.8904   23.5712  -75.5283 N.am      4 UNK        -0.4224 
     55 C         -78.0893   23.4019  -76.8426 C.2       3 UNK         0.4895 
     56 O         -77.1797   23.2753  -77.6619 O.2       3 UNK        -0.5091 
     57 CA        -79.5491   23.4026  -77.3270 C.3       3 UNK         0.0250 
     58 CB        -80.2044   22.0340  -77.0817 C.3       3 UNK        -0.1996 
     59 N         -80.3602   24.4552  -76.7083 N.am      3 UNK        -0.4254 
     60 C         -80.1607   25.7666  -76.8986 C.2       2 UNK         0.5004 
     61 O         -79.2694   26.2298  -77.6088 O.2       2 UNK        -0.5226 
     62 CA        -81.0828   26.7306  -76.1345 C.3       2 UNK         0.0269 
     63 CB        -82.4478   26.8405  -76.8326 C.3       2 UNK        -0.1926 
     64 N         -81.2846   26.4266  -74.7109 N.am      2 UNK        -0.4687 
     65 C         -80.3302   26.1540  -73.8105 C.2       1 UNK         0.5165 
     66 O         -79.1647   25.8974  -74.1065 O.2       1 UNK        -0.5079 
     67 H67       -84.2670   23.6453  -71.1987 H         1 UNK         0.0900 
     68 H68       -83.7509   22.8909  -72.7095 H         1 UNK         0.0900 
     69 H69       -82.7006   22.8379  -71.2919 H         1 UNK         0.0900 
     70 H70       -81.0011   24.2881  -71.4474 H         1 UNK         0.2959 
     71 H71       -81.3896   27.0571  -72.2141 H         1 UNK         0.1079 
     72 H72       -78.7891   27.0866  -71.8348 H         1 UNK         0.0837 
     73 H73       -78.9578   25.4491  -71.2977 H         1 UNK         0.0837 
     74 H74       -81.1743   28.8391  -70.7194 H         1 UNK         0.0685 
     75 H75       -80.5997   29.2187  -69.1240 H         1 UNK         0.0685 
     76 H76       -79.8888   29.5232  -72.6581 H         1 UNK         0.1434 
     77 H77       -76.1860   31.6022  -72.0795 H         1 UNK         0.1329 
     78 H78       -78.0979   29.6658  -68.7649 H         1 UNK         0.1335 
     79 H79       -75.6123   32.1604  -69.6429 H         1 UNK         0.0680 
     80 H80       -76.2471   31.1561  -68.3735 H         1 UNK         0.0680 
     81 H81       -72.2886   30.8799  -70.0510 H         1 UNK         0.1032 
     82 H82       -73.5175   32.0288  -70.4785 H         1 UNK         0.1032 
     83 H83       -74.1779   30.6327  -72.4452 H         1 UNK         0.0461 
     84 H84       -71.9955   32.9441  -74.0122 H         1 UNK         0.3453 
     85 H85       -73.6345   32.5393  -73.5774 H         1 UNK         0.3453 
     86 H86       -72.7344   28.5843  -71.2022 H         1 UNK         0.2984 
     87 H87       -71.8300   26.6816  -72.3798 H         1 UNK         0.0554 
     88 H88       -74.0381   26.5194  -71.3389 H         1 UNK         0.0847 
     89 H89       -73.7928   25.0727  -72.2982 H         1 UNK         0.0847 
     90 H90       -74.8368   26.3667  -72.8886 H         1 UNK         0.0847 
     91 H91       -73.1787   25.6092  -74.7087 H         1 UNK         0.3141 
     92 H92       -70.4596   26.0327  -76.9064 H         1 UNK         0.0743 
     93 H93       -70.6758   23.4502  -75.2586 H         1 UNK         0.0784 
     94 H94       -69.8017   23.6447  -76.7766 H         1 UNK         0.0784 
     95 H95       -69.2416   24.4644  -75.3354 H         1 UNK         0.0784 
     96 H96       -73.1151   24.9542  -76.4017 H         1 UNK         0.3213 
     97 H97       -73.3756   23.6333  -79.7672 H         1 UNK         0.0855 
     98 H98       -74.1403   22.7770  -76.9297 H         1 UNK         0.0814 
     99 H99       -73.0896   21.8864  -78.0186 H         1 UNK         0.0814 
    100 H100      -74.7795   22.1181  -78.4325 H         1 UNK         0.0814 
    101 H101      -75.4014   24.6498  -78.0112 H         1 UNK         0.3105 
    102 H102      -75.8306   27.7551  -79.7124 H         1 UNK         0.0547 
    103 H103      -76.9629   26.0814  -81.1895 H         1 UNK         0.0837 
    104 H104      -77.5367   25.2091  -79.7738 H         1 UNK         0.0837 
    105 H105      -78.1008   26.8477  -80.0931 H         1 UNK         0.0837 
    106 H106      -77.3344   26.4668  -77.6505 H         1 UNK         0.3020 
    107 H107      -75.3390   27.6382  -74.9092 H         1 UNK         0.1245 
    108 H108      -77.7844   28.1884  -74.2370 H         1 UNK         0.0781 
    109 H109      -78.0939   28.5056  -75.9241 H         1 UNK         0.0781 
    110 H110      -78.9415   30.7335  -74.4946 H         1 UNK         0.0836 
    111 H111      -77.8668   32.0444  -74.0874 H         1 UNK         0.0836 
    112 H112      -77.6163   25.9778  -74.9300 H         1 UNK         0.3022 
    113 H113      -75.9521   22.8480  -75.2877 H         1 UNK         0.0747 
    114 H114      -77.1675   22.5151  -73.1372 H         1 UNK         0.0793 
    115 H115      -75.7267   23.4886  -72.8987 H         1 UNK         0.0793 
    116 H116      -77.3058   24.2598  -72.9234 H         1 UNK         0.0793 
    117 H117      -78.6895   23.7575  -74.9384 H         1 UNK         0.3047 
    118 H118      -79.5349   23.5839  -78.4041 H         1 UNK         0.0822 
    119 H119      -81.2072   21.9926  -77.5075 H         1 UNK         0.0807 
    120 H120      -80.2811   21.8041  -76.0182 H         1 UNK         0.0807 
    121 H121      -79.6241   21.2356  -77.5467 H         1 UNK         0.0807 
    122 H122      -81.1072   24.1667  -76.0933 H         1 UNK         0.2946 
    123 H123      -80.6066   27.7123  -76.1780 H         1 UNK         0.1144 
    124 H124      -83.0126   25.9098  -76.7652 H         1 UNK         0.0793 
    125 H125      -82.3292   27.0754  -77.8915 H         1 UNK         0.0793 
    126 H126      -83.0550   27.6327  -76.3941 H         1 UNK         0.0793 
    127 H127      -82.2319   26.5156  -74.3589 H         1 UNK         0.2896 
@<TRIPOS>BOND
     1    1    2 1    
     2    1   67 1    
     3    1   68 1    
     4    1   69 1    
     5    2    3 2    
     6    2    4 am   BACKBONE|DICT|INTERRES
     7    4    5 1    
     8    4   70 1    
     9    5    6 1    
    10    5   65 1    
    11    5   71 1    
    12    6    7 1    
    13    6   72 1    
    14    6   73 1    
    15    7    8 1    
    16    8    9 1    
    17    8   74 1    
    18    8   75 1    
    19    9   10 ar   
    20    9   14 ar   
    21   10   11 ar   
    22   10   76 1    
    23   11   12 ar   
    24   11   48 1    
    25   12   13 ar   
    26   12   77 1    
    27   13   14 ar   
    28   13   15 1    
    29   14   78 1    
    30   15   16 1    
    31   15   79 1    
    32   15   80 1    
    33   16   17 1    
    34   17   18 1    
    35   17   81 1    
    36   17   82 1    
    37   18   19 1    
    38   18   22 1    
    39   18   83 1    
    40   19   20 am   BACKBONE|DICT|INTERRES
    41   19   21 2    
    42   20   84 1    
    43   20   85 1    
    44   22   23 am   BACKBONE|DICT|INTERRES
    45   22   86 1    
    46   23   24 2    
    47   23   25 1    
    48   25   26 1    
    49   25   27 1    
    50   25   87 1    
    51   26   88 1    
    52   26   89 1    
    53   26   90 1    
    54   27   28 am   BACKBONE|DICT|INTERRES
    55   27   91 1    
    56   28   29 2    
    57   28   30 1    
    58   30   31 1    
    59   30   32 1    
    60   30   92 1    
    61   31   93 1    
    62   31   94 1    
    63   31   95 1    
    64   32   33 am   BACKBONE|DICT|INTERRES
    65   32   96 1    
    66   33   34 2    
    67   33   35 1    
    68   35   36 1    
    69   35   37 1    
    70   35   97 1    
    71   36   98 1    
    72   36   99 1    
    73   36  100 1    
    74   37   38 am   BACKBONE|DICT|INTERRES
    75   37  101 1    
    76   38   39 2    
    77   38   40 1    
    78   40   41 1    
    79   40   42 1    
    80   40  102 1    
    81   41  103 1    
    82   41  104 1    
    83   41  105 1    
    84   42   43 am   BACKBONE|DICT|INTERRES
    85   42  106 1    
    86   43   44 2    
    87   43   45 1    
    88   45   46 1    
    89   45   49 1    
    90   45  107 1    
    91   46   47 1    
    92   46  108 1    
    93   46  109 1    
    94   47   48 1    
    95   48  110 1    
    96   48  111 1    
    97   49   50 am   BACKBONE|DICT|INTERRES
    98   49  112 1    
    99   50   51 2    
   100   50   52 1    
   101   52   53 1    
   102   52   54 1    
   103   52  113 1    
   104   53  114 1    
   105   53  115 1    
   106   53  116 1    
   107   54   55 am   BACKBONE|DICT|INTERRES
   108   54  117 1    
   109   55   56 2    
   110   55   57 1    
   111   57   58 1    
   112   57   59 1    
   113   57  118 1    
   114   58  119 1    
   115   58  120 1    
   116   58  121 1    
   117   59   60 am   BACKBONE|DICT|INTERRES
   118   59  122 1    
   119   60   61 2    
   120   60   62 1    
   121   62   63 1    
   122   62   64 1    
   123   62  123 1    
   124   63  124 1    
   125   63  125 1    
   126   63  126 1    
   127   64   65 am   BACKBONE|DICT|INTERRES
   128   64  127 1    
   129   65   66 2    
@<TRIPOS>SUBSTRUCTURE
     1 UNK         1 GROUP             0       ****    0 ROOT    
