@<TRIPOS>MOLECULE
3R135
127   129    1
SMALL
USER_CHARGES


@<TRIPOS>ATOM
      1 CA        -82.9536   29.4954  -76.5591 C.3       0 UNK        -0.1998 
      2 C         -83.3720   29.9860  -75.1747 C.2       0 UNK         0.4909 
      3 O         -84.3449   30.7311  -75.0692 O.2       0 UNK        -0.5240 
      4 N         -82.6737   29.6198  -74.0907 N.am      1 UNK        -0.4739 
      5 CA        -81.5399   28.6879  -74.0363 C.3       1 UNK         0.0864 
      6 C6        -80.7815   28.7921  -72.6916 C.3       11 UNK        -0.0881 
      7 S7        -80.0488   30.4354  -72.3799 S.3       11 UNK        -0.2682 
      8 C8        -79.6517   30.3271  -70.5999 C.3       11 UNK         0.0289 
      9 C9        -78.5472   29.3148  -70.3239 C.ar      11 UNK        -0.0687 
     10 C10       -78.8632   27.9596  -70.1989 C.ar      11 UNK        -0.0823 
     11 C11       -77.8572   27.0059  -70.0422 C.ar      11 UNK        -0.0830 
     12 C12       -76.5306   27.4227  -69.9095 C.ar      11 UNK        -0.1021 
     13 C13       -76.1975   28.7730  -70.0354 C.ar      11 UNK        -0.0753 
     14 C14       -77.2103   29.7188  -70.2354 C.ar      11 UNK        -0.0933 
     15 C15       -74.7325   29.1814  -70.0284 C.3       11 UNK         0.0166 
     16 S16       -73.9161   28.6817  -71.5810 S.3       11 UNK        -0.2615 
     17 C17       -74.6720   29.8519  -72.7670 C.3       11 UNK        -0.0865 
     18 CA        -73.6552   30.6517  -73.6219 C.3       10 UNK         0.0862 
     19 C         -72.6851   31.5113  -72.7560 C.2       10 UNK         0.5551 
     20 N         -73.1730   32.6112  -72.1968 N.am      10 UNK        -0.7319 
     21 O         -71.5158   31.1835  -72.5616 O.2       10 UNK        -0.5018 
     22 N         -73.0026   29.7941  -74.6245 N.am      10 UNK        -0.4509 
     23 C         -72.2370   30.2471  -75.6273 C.2       10 UNK         0.4899 
     24 O         -72.0037   31.4427  -75.8143 O.2       10 UNK        -0.4839 
     25 CA        -71.6901   29.2281  -76.6440 C.3       9 UNK         0.0222 
     26 CB        -70.2409   29.5414  -77.0761 C.3       9 UNK        -0.1966 
     27 N         -71.8524   27.8185  -76.2682 N.am      9 UNK        -0.4218 
     28 C         -71.1746   27.1159  -75.3465 C.2       9 UNK         0.5020 
     29 O         -70.3257   27.6079  -74.6024 O.2       9 UNK        -0.5274 
     30 CA        -71.4696   25.6030  -75.2316 C.3       8 UNK         0.0270 
     31 CB        -71.9381   25.2370  -73.8121 C.3       8 UNK        -0.1976 
     32 N         -72.4474   25.1104  -76.2088 N.am      8 UNK        -0.4313 
     33 C         -72.2048   24.9025  -77.5112 C.2       8 UNK         0.5041 
     34 O         -71.0889   25.0039  -78.0216 O.2       8 UNK        -0.5577 
     35 CA        -73.4167   24.5851  -78.4092 C.3       7 UNK         0.0284 
     36 CB        -73.6227   23.0676  -78.5351 C.3       7 UNK        -0.1958 
     37 N         -74.6591   25.2247  -77.9565 N.am      7 UNK        -0.4454 
     38 C         -74.8521   26.5522  -77.9049 C.2       7 UNK         0.5089 
     39 O         -74.0220   27.3750  -78.2889 O.2       7 UNK        -0.5125 
     40 CA        -76.1523   27.0519  -77.2532 C.3       6 UNK         0.0408 
     41 CB        -77.3252   26.9894  -78.2434 C.3       6 UNK        -0.1791 
     42 N         -76.4837   26.3008  -76.0422 N.am      6 UNK        -0.4762 
     43 C         -75.7530   26.2919  -74.9186 C.2       6 UNK         0.5007 
     44 O         -74.7686   27.0115  -74.7498 O.2       6 UNK        -0.5032 
     45 CA        -76.1278   25.2505  -73.8438 C.3       5 UNK         0.0783 
     46 C46       -77.1652   25.7719  -72.8236 C.3       11 UNK        -0.0857 
     47 S47       -77.2553   24.6257  -71.3925 S.3       11 UNK        -0.2512 
     48 C48       -78.2030   25.5260  -70.1125 C.3       11 UNK         0.0225 
     49 N         -76.5660   23.9941  -74.4535 N.am      5 UNK        -0.4615 
     50 C         -75.7486   23.0966  -75.0118 C.2       4 UNK         0.5053 
     51 O         -74.5285   23.2360  -75.0800 O.2       4 UNK        -0.5105 
     52 CA        -76.4103   21.8438  -75.6102 C.3       4 UNK         0.0263 
     53 CB        -76.5733   20.7583  -74.5347 C.3       4 UNK        -0.1981 
     54 N         -77.7124   22.1251  -76.2239 N.am      4 UNK        -0.4224 
     55 C         -77.8734   22.8555  -77.3360 C.2       3 UNK         0.4895 
     56 O         -76.9415   23.3556  -77.9666 O.2       3 UNK        -0.5091 
     57 CA        -79.3202   23.1067  -77.7976 C.3       3 UNK         0.0250 
     58 CB        -79.8827   21.8706  -78.5181 C.3       3 UNK        -0.1996 
     59 N         -80.2410   23.5206  -76.7282 N.am      3 UNK        -0.4254 
     60 C         -80.0613   24.5917  -75.9436 C.2       2 UNK         0.5004 
     61 O         -79.0399   25.2807  -75.9521 O.2       2 UNK        -0.5226 
     62 CA        -81.1868   24.9643  -74.9736 C.3       2 UNK         0.0269 
     63 CB        -81.0984   24.1329  -73.6807 C.3       2 UNK        -0.1926 
     64 N         -81.0293   26.3835  -74.6646 N.am      2 UNK        -0.4687 
     65 C         -81.9860   27.2257  -74.2665 C.2       1 UNK         0.5165 
     66 O         -83.1542   26.8860  -74.0627 O.2       1 UNK        -0.5079 
     67 H67       -81.8979   29.6862  -76.7479 H         1 UNK         0.0900 
     68 H68       -83.1480   28.4292  -76.6691 H         1 UNK         0.0900 
     69 H69       -83.5203   30.0144  -77.3320 H         1 UNK         0.0900 
     70 H70       -82.9768   29.9653  -73.1919 H         1 UNK         0.2959 
     71 H71       -80.8405   28.9528  -74.8315 H         1 UNK         0.1079 
     72 H72       -79.9638   28.0693  -72.6734 H         1 UNK         0.0837 
     73 H73       -81.4458   28.5376  -71.8633 H         1 UNK         0.0837 
     74 H74       -80.5508   30.0674  -70.0388 H         1 UNK         0.0685 
     75 H75       -79.3487   31.3142  -70.2475 H         1 UNK         0.0685 
     76 H76       -79.8924   27.6405  -70.2820 H         1 UNK         0.1434 
     77 H77       -75.7459   26.6868  -69.7964 H         1 UNK         0.1329 
     78 H78       -76.9577   30.7638  -70.3513 H         1 UNK         0.1335 
     79 H79       -74.2260   28.7005  -69.1904 H         1 UNK         0.0680 
     80 H80       -74.6215   30.2568  -69.8803 H         1 UNK         0.0680 
     81 H81       -75.3144   30.5511  -72.2314 H         1 UNK         0.1032 
     82 H82       -75.3469   29.2913  -73.4153 H         1 UNK         0.1032 
     83 H83       -74.2416   31.3645  -74.2056 H         1 UNK         0.0461 
     84 H84       -72.5671   33.1771  -71.6235 H         1 UNK         0.3453 
     85 H85       -74.1280   32.8963  -72.3467 H         1 UNK         0.3453 
     86 H86       -73.1618   28.7991  -74.5355 H         1 UNK         0.2984 
     87 H87       -72.3131   29.3534  -77.5302 H         1 UNK         0.0554 
     88 H88       -70.1741   30.5280  -77.5360 H         1 UNK         0.0847 
     89 H89       -69.8796   28.8203  -77.8093 H         1 UNK         0.0847 
     90 H90       -69.5538   29.5354  -76.2297 H         1 UNK         0.0847 
     91 H91       -72.5570   27.3282  -76.8085 H         1 UNK         0.3141 
     92 H92       -70.5263   25.0837  -75.4130 H         1 UNK         0.0743 
     93 H93       -71.1668   25.4690  -73.0766 H         1 UNK         0.0784 
     94 H94       -72.8311   25.7896  -73.5227 H         1 UNK         0.0784 
     95 H95       -72.1570   24.1725  -73.7253 H         1 UNK         0.0784 
     96 H96       -73.3816   24.9261  -75.8620 H         1 UNK         0.3213 
     97 H97       -73.1933   24.9771  -79.4038 H         1 UNK         0.0855 
     98 H98       -73.8465   22.6072  -77.5735 H         1 UNK         0.0814 
     99 H99       -72.7258   22.5847  -78.9251 H         1 UNK         0.0814 
    100 H100      -74.4398   22.8327  -79.2175 H         1 UNK         0.0814 
    101 H101      -75.4223   24.6097  -77.6873 H         1 UNK         0.3105 
    102 H102      -76.0041   28.0956  -76.9678 H         1 UNK         0.0547 
    103 H103      -78.2343   27.4020  -77.8058 H         1 UNK         0.0837 
    104 H104      -77.5404   25.9666  -78.5531 H         1 UNK         0.0837 
    105 H105      -77.1071   27.5651  -79.1437 H         1 UNK         0.0837 
    106 H106      -77.3295   25.7323  -76.0769 H         1 UNK         0.3020 
    107 H107      -75.2043   25.0504  -73.2948 H         1 UNK         0.1245 
    108 H108      -78.1533   25.8739  -73.2749 H         1 UNK         0.0781 
    109 H109      -76.8743   26.7670  -72.4871 H         1 UNK         0.0781 
    110 H110      -78.0147   25.0668  -69.1413 H         1 UNK         0.0836 
    111 H111      -79.2657   25.3868  -70.3172 H         1 UNK         0.0836 
    112 H112      -77.5603   23.8260  -74.4699 H         1 UNK         0.3022 
    113 H113      -75.7464   21.4577  -76.3865 H         1 UNK         0.0747 
    114 H114      -76.9713   19.8360  -74.9583 H         1 UNK         0.0793 
    115 H115      -75.6122   20.5152  -74.0790 H         1 UNK         0.0793 
    116 H116      -77.2416   21.0775  -73.7338 H         1 UNK         0.0793 
    117 H117      -78.5316   21.7539  -75.7651 H         1 UNK         0.3047 
    118 H118      -79.2834   23.9256  -78.5194 H         1 UNK         0.0822 
    119 H119      -80.8537   22.0806  -78.9670 H         1 UNK         0.0807 
    120 H120      -80.0018   21.0240  -77.8409 H         1 UNK         0.0807 
    121 H121      -79.2191   21.5527  -79.3238 H         1 UNK         0.0807 
    122 H122      -81.0997   22.9949  -76.6453 H         1 UNK         0.2946 
    123 H123      -82.1488   24.7995  -75.4648 H         1 UNK         0.1144 
    124 H124      -80.1444   24.2762  -73.1716 H         1 UNK         0.0793 
    125 H125      -81.2016   23.0675  -73.8898 H         1 UNK         0.0793 
    126 H126      -81.8910   24.4017  -72.9822 H         1 UNK         0.0793 
    127 H127      -80.0983   26.7280  -74.8688 H         1 UNK         0.2896 
@<TRIPOS>BOND
     1    1    2 1    
     2    1   67 1    
     3    1   68 1    
     4    1   69 1    
     5    2    3 2    
     6    2    4 am   BACKBONE|DICT|INTERRES
     7    4    5 1    
     8    4   70 1    
     9    5    6 1    
    10    5   65 1    
    11    5   71 1    
    12    6    7 1    
    13    6   72 1    
    14    6   73 1    
    15    7    8 1    
    16    8    9 1    
    17    8   74 1    
    18    8   75 1    
    19    9   10 ar   
    20    9   14 ar   
    21   10   11 ar   
    22   10   76 1    
    23   11   12 ar   
    24   11   48 1    
    25   12   13 ar   
    26   12   77 1    
    27   13   14 ar   
    28   13   15 1    
    29   14   78 1    
    30   15   16 1    
    31   15   79 1    
    32   15   80 1    
    33   16   17 1    
    34   17   18 1    
    35   17   81 1    
    36   17   82 1    
    37   18   19 1    
    38   18   22 1    
    39   18   83 1    
    40   19   20 am   BACKBONE|DICT|INTERRES
    41   19   21 2    
    42   20   84 1    
    43   20   85 1    
    44   22   23 am   BACKBONE|DICT|INTERRES
    45   22   86 1    
    46   23   24 2    
    47   23   25 1    
    48   25   26 1    
    49   25   27 1    
    50   25   87 1    
    51   26   88 1    
    52   26   89 1    
    53   26   90 1    
    54   27   28 am   BACKBONE|DICT|INTERRES
    55   27   91 1    
    56   28   29 2    
    57   28   30 1    
    58   30   31 1    
    59   30   32 1    
    60   30   92 1    
    61   31   93 1    
    62   31   94 1    
    63   31   95 1    
    64   32   33 am   BACKBONE|DICT|INTERRES
    65   32   96 1    
    66   33   34 2    
    67   33   35 1    
    68   35   36 1    
    69   35   37 1    
    70   35   97 1    
    71   36   98 1    
    72   36   99 1    
    73   36  100 1    
    74   37   38 am   BACKBONE|DICT|INTERRES
    75   37  101 1    
    76   38   39 2    
    77   38   40 1    
    78   40   41 1    
    79   40   42 1    
    80   40  102 1    
    81   41  103 1    
    82   41  104 1    
    83   41  105 1    
    84   42   43 am   BACKBONE|DICT|INTERRES
    85   42  106 1    
    86   43   44 2    
    87   43   45 1    
    88   45   46 1    
    89   45   49 1    
    90   45  107 1    
    91   46   47 1    
    92   46  108 1    
    93   46  109 1    
    94   47   48 1    
    95   48  110 1    
    96   48  111 1    
    97   49   50 am   BACKBONE|DICT|INTERRES
    98   49  112 1    
    99   50   51 2    
   100   50   52 1    
   101   52   53 1    
   102   52   54 1    
   103   52  113 1    
   104   53  114 1    
   105   53  115 1    
   106   53  116 1    
   107   54   55 am   BACKBONE|DICT|INTERRES
   108   54  117 1    
   109   55   56 2    
   110   55   57 1    
   111   57   58 1    
   112   57   59 1    
   113   57  118 1    
   114   58  119 1    
   115   58  120 1    
   116   58  121 1    
   117   59   60 am   BACKBONE|DICT|INTERRES
   118   59  122 1    
   119   60   61 2    
   120   60   62 1    
   121   62   63 1    
   122   62   64 1    
   123   62  123 1    
   124   63  124 1    
   125   63  125 1    
   126   63  126 1    
   127   64   65 am   BACKBONE|DICT|INTERRES
   128   64  127 1    
   129   65   66 2    
@<TRIPOS>SUBSTRUCTURE
     1 UNK         1 GROUP             0       ****    0 ROOT    
