@<TRIPOS>MOLECULE
3R135
127   129    1
SMALL
USER_CHARGES


@<TRIPOS>ATOM
      1 CA        -84.2513   23.9983  -72.2637 C.3       0 UNK        -0.1998 
      2 C         -83.2845   25.1624  -72.4160 C.2       0 UNK         0.4909 
      3 O         -83.6750   26.2268  -72.8976 O.2       0 UNK        -0.5240 
      4 N         -82.0178   24.9701  -72.0237 N.am      1 UNK        -0.4739 
      5 CA        -80.9373   25.9624  -72.0928 C.3       1 UNK         0.0864 
      6 C6        -79.8796   25.6775  -70.9860 C.3       11 UNK        -0.0881 
      7 S7        -78.4437   26.8062  -70.8965 S.3       11 UNK        -0.2682 
      8 C8        -79.1863   28.4027  -70.4389 C.3       11 UNK         0.0289 
      9 C9        -78.4172   29.5335  -71.1016 C.ar      11 UNK        -0.0687 
     10 C10       -78.5588   29.7561  -72.4741 C.ar      11 UNK        -0.0823 
     11 C11       -77.8131   30.7491  -73.1144 C.ar      11 UNK        -0.0830 
     12 C12       -76.9515   31.5529  -72.3614 C.ar      11 UNK        -0.1021 
     13 C13       -76.8160   31.3530  -70.9834 C.ar      11 UNK        -0.0753 
     14 C14       -77.5480   30.3374  -70.3595 C.ar      11 UNK        -0.0933 
     15 C15       -75.8858   32.2380  -70.1642 C.3       11 UNK         0.0166 
     16 S16       -74.1344   32.0332  -70.6202 S.3       11 UNK        -0.2615 
     17 C17       -73.8214   30.2889  -70.1739 C.3       11 UNK        -0.0865 
     18 CA        -72.7410   29.6362  -71.0757 C.3       10 UNK         0.0862 
     19 C         -72.3851   28.1985  -70.5895 C.2       10 UNK         0.5551 
     20 N         -72.4557   27.1639  -71.4205 N.am      10 UNK        -0.7319 
     21 O         -72.0258   28.0195  -69.4284 O.2       10 UNK        -0.5018 
     22 N         -73.0960   29.7184  -72.5014 N.am      10 UNK        -0.4509 
     23 C         -72.2091   29.7087  -73.5001 C.2       10 UNK         0.4899 
     24 O         -70.9860   29.7389  -73.3464 O.2       10 UNK        -0.4839 
     25 CA        -72.7909   29.6325  -74.9193 C.3       9 UNK         0.0222 
     26 CB        -72.6384   30.9739  -75.6528 C.3       9 UNK        -0.1966 
     27 N         -72.1521   28.5665  -75.6934 N.am      9 UNK        -0.4218 
     28 C         -72.2280   27.2646  -75.3878 C.2       9 UNK         0.5020 
     29 O         -72.8821   26.8193  -74.4415 O.2       9 UNK        -0.5274 
     30 CA        -71.4241   26.3023  -76.2663 C.3       8 UNK         0.0270 
     31 CB        -70.3264   25.5935  -75.4499 C.3       8 UNK        -0.1976 
     32 N         -72.3365   25.3267  -76.8556 N.am      8 UNK        -0.4313 
     33 C         -72.0933   24.6251  -77.9699 C.2       8 UNK         0.5041 
     34 O         -71.0390   24.6897  -78.6044 O.2       8 UNK        -0.5577 
     35 CA        -73.2207   23.7176  -78.4847 C.3       7 UNK         0.0284 
     36 CB        -73.3637   22.4524  -77.6213 C.3       7 UNK        -0.1958 
     37 N         -74.4912   24.4416  -78.5354 N.am      7 UNK        -0.4454 
     38 C         -74.8756   25.2154  -79.5606 C.2       7 UNK         0.5089 
     39 O         -74.2372   25.3282  -80.6079 O.2       7 UNK        -0.5125 
     40 CA        -76.1942   25.9985  -79.4087 C.3       6 UNK         0.0408 
     41 CB        -77.3559   25.2069  -80.0296 C.3       6 UNK        -0.1791 
     42 N         -76.5301   26.3376  -78.0242 N.am      6 UNK        -0.4762 
     43 C         -75.8166   27.1540  -77.2341 C.2       6 UNK         0.5007 
     44 O         -74.8190   27.7672  -77.6138 O.2       6 UNK        -0.5032 
     45 CA        -76.2653   27.2564  -75.7592 C.3       5 UNK         0.0783 
     46 C46       -77.3453   28.3495  -75.5665 C.3       11 UNK        -0.0857 
     47 S47       -76.6553   30.0383  -75.5337 S.3       11 UNK        -0.2512 
     48 C48       -77.9363   30.9549  -74.6173 C.3       11 UNK         0.0225 
     49 N         -76.7072   25.9680  -75.2078 N.am      5 UNK        -0.4615 
     50 C         -75.9798   24.8419  -75.1694 C.2       4 UNK         0.5053 
     51 O         -74.8372   24.7463  -75.6118 O.2       4 UNK        -0.5105 
     52 CA        -76.6646   23.5929  -74.6010 C.3       4 UNK         0.0263 
     53 CB        -76.6699   23.6174  -73.0638 C.3       4 UNK        -0.1981 
     54 N         -78.0313   23.4778  -75.1092 N.am      4 UNK        -0.4224 
     55 C         -78.3459   22.9870  -76.3168 C.2       3 UNK         0.4895 
     56 O         -77.5257   22.4898  -77.0888 O.2       3 UNK        -0.5091 
     57 CA        -79.8210   23.0804  -76.7502 C.3       3 UNK         0.0250 
     58 CB        -80.5952   21.8320  -76.2980 C.3       3 UNK        -0.1996 
     59 N         -80.5023   24.2799  -76.2547 N.am      3 UNK        -0.4254 
     60 C         -80.1903   25.5340  -76.6112 C.2       2 UNK         0.5004 
     61 O         -79.3119   25.8162  -77.4245 O.2       2 UNK        -0.5226 
     62 CA        -80.9486   26.6705  -75.9030 C.3       2 UNK         0.0269 
     63 CB        -82.2511   26.9926  -76.6517 C.3       2 UNK        -0.1926 
     64 N         -81.2513   26.4271  -74.4864 N.am      2 UNK        -0.4687 
     65 C         -80.3803   26.0631  -73.5340 C.2       1 UNK         0.5165 
     66 O         -79.2063   25.7843  -73.7765 O.2       1 UNK        -0.5079 
     67 H67       -85.0801   24.2823  -71.6156 H         1 UNK         0.0900 
     68 H68       -84.6585   23.7192  -73.2352 H         1 UNK         0.0900 
     69 H69       -83.7692   23.1209  -71.8329 H         1 UNK         0.0900 
     70 H70       -81.7521   24.0651  -71.6609 H         1 UNK         0.2959 
     71 H71       -81.3776   26.9371  -71.8786 H         1 UNK         0.1079 
     72 H72       -79.4814   24.6692  -71.1130 H         1 UNK         0.0837 
     73 H73       -80.3639   25.6824  -70.0082 H         1 UNK         0.0837 
     74 H74       -80.2306   28.4579  -70.7423 H         1 UNK         0.0685 
     75 H75       -79.1766   28.5035  -69.3526 H         1 UNK         0.0685 
     76 H76       -79.2322   29.1327  -73.0456 H         1 UNK         0.1434 
     77 H77       -76.3758   32.3287  -72.8481 H         1 UNK         0.1329 
     78 H78       -77.4373   30.1679  -69.2971 H         1 UNK         0.1335 
     79 H79       -76.1672   33.2812  -70.3142 H         1 UNK         0.0680 
     80 H80       -75.9984   32.0418  -69.0967 H         1 UNK         0.0680 
     81 H81       -73.5147   30.2655  -69.1265 H         1 UNK         0.1032 
     82 H82       -74.7466   29.7143  -70.2306 H         1 UNK         0.1032 
     83 H83       -71.8273   30.2167  -70.9343 H         1 UNK         0.0461 
     84 H84       -72.2167   26.2474  -71.0788 H         1 UNK         0.3453 
     85 H85       -72.7200   27.2800  -72.3917 H         1 UNK         0.3453 
     86 H86       -74.0827   29.6970  -72.7133 H         1 UNK         0.2984 
     87 H87       -73.8545   29.4003  -74.8534 H         1 UNK         0.0554 
     88 H88       -73.1285   31.7761  -75.0992 H         1 UNK         0.0847 
     89 H89       -73.0968   30.9388  -76.6413 H         1 UNK         0.0847 
     90 H90       -71.5910   31.2532  -75.7740 H         1 UNK         0.0847 
     91 H91       -71.5771   28.8540  -76.4717 H         1 UNK         0.3141 
     92 H92       -70.9518   26.8719  -77.0696 H         1 UNK         0.0743 
     93 H93       -70.7524   24.9718  -74.6613 H         1 UNK         0.0784 
     94 H94       -69.7071   24.9561  -76.0811 H         1 UNK         0.0784 
     95 H95       -69.6654   26.3188  -74.9736 H         1 UNK         0.0784 
     96 H96       -73.2304   25.2147  -76.3740 H         1 UNK         0.3213 
     97 H97       -72.9557   23.3949  -79.4942 H         1 UNK         0.0855 
     98 H98       -73.5882   22.6838  -76.5803 H         1 UNK         0.0814 
     99 H99       -72.4398   21.8728  -77.6305 H         1 UNK         0.0814 
    100 H100      -74.1565   21.8051  -77.9967 H         1 UNK         0.0814 
    101 H101      -75.0413   24.4518  -77.6848 H         1 UNK         0.3105 
    102 H102      -76.0854   26.9340  -79.9611 H         1 UNK         0.0547 
    103 H103      -78.2774   25.7893  -80.0292 H         1 UNK         0.0837 
    104 H104      -77.5462   24.2798  -79.4868 H         1 UNK         0.0837 
    105 H105      -77.1415   24.9422  -81.0658 H         1 UNK         0.0837 
    106 H106      -77.3907   25.9387  -77.6566 H         1 UNK         0.3020 
    107 H107      -75.3843   27.5353  -75.1783 H         1 UNK         0.1245 
    108 H108      -77.8604   28.1801  -74.6222 H         1 UNK         0.0781 
    109 H109      -78.1113   28.2928  -76.3414 H         1 UNK         0.0781 
    110 H110      -78.9258   30.6591  -74.9696 H         1 UNK         0.0836 
    111 H111      -77.8389   32.0167  -74.8486 H         1 UNK         0.0836 
    112 H112      -77.6330   25.9477  -74.7877 H         1 UNK         0.3022 
    113 H113      -76.0922   22.7189  -74.9201 H         1 UNK         0.0747 
    114 H114      -77.1389   22.7227  -72.6545 H         1 UNK         0.0793 
    115 H115      -75.6516   23.6575  -72.6749 H         1 UNK         0.0793 
    116 H116      -77.1999   24.4842  -72.6684 H         1 UNK         0.0793 
    117 H117      -78.7483   23.9511  -74.5720 H         1 UNK         0.3047 
    118 H118      -79.8375   23.1168  -77.8418 H         1 UNK         0.0822 
    119 H119      -81.6182   21.8409  -76.6747 H         1 UNK         0.0807 
    120 H120      -80.6370   21.7526  -75.2109 H         1 UNK         0.0807 
    121 H121      -80.1221   20.9232  -76.6731 H         1 UNK         0.0807 
    122 H122      -81.2350   24.1460  -75.5733 H         1 UNK         0.2946 
    123 H123      -80.3102   27.5540  -75.9440 H         1 UNK         0.1144 
    124 H124      -82.0567   27.1976  -77.7056 H         1 UNK         0.0793 
    125 H125      -82.7394   27.8748  -76.2371 H         1 UNK         0.0793 
    126 H126      -82.9593   26.1643  -76.6047 H         1 UNK         0.0793 
    127 H127      -82.2114   26.5801  -74.1909 H         1 UNK         0.2896 
@<TRIPOS>BOND
     1    1    2 1    
     2    1   67 1    
     3    1   68 1    
     4    1   69 1    
     5    2    3 2    
     6    2    4 am   BACKBONE|DICT|INTERRES
     7    4    5 1    
     8    4   70 1    
     9    5    6 1    
    10    5   65 1    
    11    5   71 1    
    12    6    7 1    
    13    6   72 1    
    14    6   73 1    
    15    7    8 1    
    16    8    9 1    
    17    8   74 1    
    18    8   75 1    
    19    9   10 ar   
    20    9   14 ar   
    21   10   11 ar   
    22   10   76 1    
    23   11   12 ar   
    24   11   48 1    
    25   12   13 ar   
    26   12   77 1    
    27   13   14 ar   
    28   13   15 1    
    29   14   78 1    
    30   15   16 1    
    31   15   79 1    
    32   15   80 1    
    33   16   17 1    
    34   17   18 1    
    35   17   81 1    
    36   17   82 1    
    37   18   19 1    
    38   18   22 1    
    39   18   83 1    
    40   19   20 am   BACKBONE|DICT|INTERRES
    41   19   21 2    
    42   20   84 1    
    43   20   85 1    
    44   22   23 am   BACKBONE|DICT|INTERRES
    45   22   86 1    
    46   23   24 2    
    47   23   25 1    
    48   25   26 1    
    49   25   27 1    
    50   25   87 1    
    51   26   88 1    
    52   26   89 1    
    53   26   90 1    
    54   27   28 am   BACKBONE|DICT|INTERRES
    55   27   91 1    
    56   28   29 2    
    57   28   30 1    
    58   30   31 1    
    59   30   32 1    
    60   30   92 1    
    61   31   93 1    
    62   31   94 1    
    63   31   95 1    
    64   32   33 am   BACKBONE|DICT|INTERRES
    65   32   96 1    
    66   33   34 2    
    67   33   35 1    
    68   35   36 1    
    69   35   37 1    
    70   35   97 1    
    71   36   98 1    
    72   36   99 1    
    73   36  100 1    
    74   37   38 am   BACKBONE|DICT|INTERRES
    75   37  101 1    
    76   38   39 2    
    77   38   40 1    
    78   40   41 1    
    79   40   42 1    
    80   40  102 1    
    81   41  103 1    
    82   41  104 1    
    83   41  105 1    
    84   42   43 am   BACKBONE|DICT|INTERRES
    85   42  106 1    
    86   43   44 2    
    87   43   45 1    
    88   45   46 1    
    89   45   49 1    
    90   45  107 1    
    91   46   47 1    
    92   46  108 1    
    93   46  109 1    
    94   47   48 1    
    95   48  110 1    
    96   48  111 1    
    97   49   50 am   BACKBONE|DICT|INTERRES
    98   49  112 1    
    99   50   51 2    
   100   50   52 1    
   101   52   53 1    
   102   52   54 1    
   103   52  113 1    
   104   53  114 1    
   105   53  115 1    
   106   53  116 1    
   107   54   55 am   BACKBONE|DICT|INTERRES
   108   54  117 1    
   109   55   56 2    
   110   55   57 1    
   111   57   58 1    
   112   57   59 1    
   113   57  118 1    
   114   58  119 1    
   115   58  120 1    
   116   58  121 1    
   117   59   60 am   BACKBONE|DICT|INTERRES
   118   59  122 1    
   119   60   61 2    
   120   60   62 1    
   121   62   63 1    
   122   62   64 1    
   123   62  123 1    
   124   63  124 1    
   125   63  125 1    
   126   63  126 1    
   127   64   65 am   BACKBONE|DICT|INTERRES
   128   64  127 1    
   129   65   66 2    
@<TRIPOS>SUBSTRUCTURE
     1 UNK         1 GROUP             0       ****    0 ROOT    
