@<TRIPOS>MOLECULE
3R135
127   129    1
SMALL
USER_CHARGES


@<TRIPOS>ATOM
      1 CA        -83.1113   24.9604  -69.2618 C.3       0 UNK        -0.1998 
      2 C         -81.6363   25.3527  -69.2422 C.2       0 UNK         0.4909 
      3 O         -80.9135   24.9364  -68.3391 O.2       0 UNK        -0.5240 
      4 N         -81.1395   26.1466  -70.2019 N.am      1 UNK        -0.4739 
      5 CA        -81.8600   26.7025  -71.3586 C.3       1 UNK         0.0864 
      6 C6        -81.1356   27.9431  -71.9393 C.3       11 UNK        -0.0881 
      7 S7        -80.9526   29.2975  -70.7254 S.3       11 UNK        -0.2682 
      8 C8        -80.9447   30.7735  -71.7979 C.3       11 UNK         0.0289 
      9 C9        -79.6967   30.8282  -72.6675 C.ar      11 UNK        -0.0687 
     10 C10       -79.7003   30.2319  -73.9306 C.ar      11 UNK        -0.0823 
     11 C11       -78.5366   30.1970  -74.7016 C.ar      11 UNK        -0.0830 
     12 C12       -77.3819   30.8309  -74.2377 C.ar      11 UNK        -0.1021 
     13 C13       -77.3656   31.4367  -72.9789 C.ar      11 UNK        -0.0753 
     14 C14       -78.5272   31.4362  -72.1982 C.ar      11 UNK        -0.0933 
     15 C15       -76.0826   32.0591  -72.4493 C.3       11 UNK         0.0166 
     16 S16       -75.2113   30.9390  -71.3062 S.3       11 UNK        -0.2615 
     17 C17       -74.4868   29.6921  -72.4326 C.3       11 UNK        -0.0865 
     18 CA        -72.9911   29.9616  -72.7582 C.3       10 UNK         0.0862 
     19 C         -72.0349   29.4454  -71.6352 C.2       10 UNK         0.5551 
     20 N         -71.0880   28.5547  -71.9071 N.am      10 UNK        -0.7319 
     21 O         -72.1423   29.8711  -70.4883 O.2       10 UNK        -0.5018 
     22 N         -72.6582   29.4975  -74.1157 N.am      10 UNK        -0.4509 
     23 C         -71.6004   29.9085  -74.8273 C.2       10 UNK         0.4899 
     24 O         -70.8432   30.8123  -74.4694 O.2       10 UNK        -0.4839 
     25 CA        -71.3390   29.1555  -76.1474 C.3       9 UNK         0.0222 
     26 CB        -69.9504   29.4556  -76.7492 C.3       9 UNK        -0.1966 
     27 N         -71.5434   27.7068  -76.0216 N.am      9 UNK        -0.4218 
     28 C         -70.9408   26.8614  -75.1704 C.2       9 UNK         0.5020 
     29 O         -70.0784   27.2034  -74.3607 O.2       9 UNK        -0.5274 
     30 CA        -71.4035   25.3916  -75.1810 C.3       8 UNK         0.0270 
     31 CB        -72.2618   25.1006  -73.9384 C.3       8 UNK        -0.1976 
     32 N         -72.1656   25.0244  -76.3764 N.am      8 UNK        -0.4313 
     33 C         -71.6525   24.8789  -77.6056 C.2       8 UNK         0.5041 
     34 O         -70.4506   24.9501  -77.8631 O.2       8 UNK        -0.5577 
     35 CA        -72.6628   24.6653  -78.7443 C.3       7 UNK         0.0284 
     36 CB        -73.0651   23.1853  -78.8548 C.3       7 UNK        -0.1958 
     37 N         -73.8588   25.4952  -78.5704 N.am      7 UNK        -0.4454 
     38 C         -73.8905   26.8251  -78.7394 C.2       7 UNK         0.5089 
     39 O         -72.9264   27.4918  -79.1129 O.2       7 UNK        -0.5125 
     40 CA        -75.2087   27.5378  -78.4002 C.3       6 UNK         0.0408 
     41 CB        -76.1599   27.5254  -79.6063 C.3       6 UNK        -0.1791 
     42 N         -75.8828   26.9445  -77.2466 N.am      6 UNK        -0.4762 
     43 C         -75.4917   27.0852  -75.9714 C.2       6 UNK         0.5007 
     44 O         -74.5158   27.7483  -75.6170 O.2       6 UNK        -0.5032 
     45 CA        -76.3256   26.3389  -74.9097 C.3       5 UNK         0.0783 
     46 C46       -77.4911   27.2195  -74.3990 C.3       11 UNK        -0.0857 
     47 S47       -78.7736   27.6122  -75.6575 S.3       11 UNK        -0.2512 
     48 C48       -78.4991   29.3867  -75.9873 C.3       11 UNK         0.0225 
     49 N         -76.7953   25.0164  -75.3363 N.am      5 UNK        -0.4615 
     50 C         -76.0362   24.0264  -75.8299 C.2       4 UNK         0.5053 
     51 O         -74.8151   24.1121  -75.9571 O.2       4 UNK        -0.5105 
     52 CA        -76.7357   22.7296  -76.2856 C.3       4 UNK         0.0263 
     53 CB        -76.4302   21.5871  -75.3043 C.3       4 UNK        -0.1981 
     54 N         -78.1879   22.8528  -76.4382 N.am      4 UNK        -0.4224 
     55 C         -78.8135   23.6508  -77.3151 C.2       3 UNK         0.4895 
     56 O         -78.2268   24.2901  -78.1900 O.2       3 UNK        -0.5091 
     57 CA        -80.3423   23.8003  -77.1719 C.3       3 UNK         0.0250 
     58 CB        -81.0591   23.0091  -78.2784 C.3       3 UNK        -0.1996 
     59 N         -80.9173   23.4270  -75.8675 N.am      3 UNK        -0.4254 
     60 C         -80.5670   23.9290  -74.6736 C.2       2 UNK         0.5004 
     61 O         -79.5985   24.6684  -74.4972 O.2       2 UNK        -0.5226 
     62 CA        -81.4004   23.4857  -73.4607 C.3       2 UNK         0.0269 
     63 CB        -80.8367   22.1825  -72.8709 C.3       2 UNK        -0.1926 
     64 N         -81.3918   24.5191  -72.4219 N.am      2 UNK        -0.4687 
     65 C         -82.0986   25.6577  -72.4738 C.2       1 UNK         0.5165 
     66 O         -82.9272   25.8981  -73.3531 O.2       1 UNK        -0.5079 
     67 H67       -83.3538   24.3511  -68.3914 H         1 UNK         0.0900 
     68 H68       -83.7514   25.8414  -69.2325 H         1 UNK         0.0900 
     69 H69       -83.3521   24.3756  -70.1486 H         1 UNK         0.0900 
     70 H70       -80.1674   26.4144  -70.1423 H         1 UNK         0.2959 
     71 H71       -82.8463   27.0326  -71.0277 H         1 UNK         0.1079 
     72 H72       -80.1456   27.6762  -72.3157 H         1 UNK         0.0837 
     73 H73       -81.6954   28.3262  -72.7943 H         1 UNK         0.0837 
     74 H74       -80.9964   31.6646  -71.1707 H         1 UNK         0.0685 
     75 H75       -81.8438   30.7843  -72.4161 H         1 UNK         0.0685 
     76 H76       -80.5907   29.7376  -74.2929 H         1 UNK         0.1434 
     77 H77       -76.4803   30.8072  -74.8345 H         1 UNK         0.1329 
     78 H78       -78.5122   31.8852  -71.2144 H         1 UNK         0.1335 
     79 H79       -76.3200   32.9843  -71.9221 H         1 UNK         0.0680 
     80 H80       -75.4163   32.3366  -73.2679 H         1 UNK         0.0680 
     81 H81       -75.0739   29.6737  -73.3491 H         1 UNK         0.1032 
     82 H82       -74.6187   28.7010  -71.9945 H         1 UNK         0.1032 
     83 H83       -72.8544   31.0446  -72.7779 H         1 UNK         0.0461 
     84 H84       -70.9282   28.2165  -72.8491 H         1 UNK         0.3453 
     85 H85       -70.4836   28.2473  -71.1623 H         1 UNK         0.3453 
     86 H86       -73.2442   28.7667  -74.5088 H         1 UNK         0.2984 
     87 H87       -72.0912   29.5078  -76.8548 H         1 UNK         0.0554 
     88 H88       -69.8338   30.5205  -76.9542 H         1 UNK         0.0847 
     89 H89       -69.8058   28.9274  -77.6917 H         1 UNK         0.0847 
     90 H90       -69.1453   29.1638  -76.0740 H         1 UNK         0.0847 
     91 H91       -72.2765   27.3259  -76.6039 H         1 UNK         0.3141 
     92 H92       -70.5099   24.7654  -75.1392 H         1 UNK         0.0743 
     93 H93       -71.7093   25.3117  -73.0216 H         1 UNK         0.0784 
     94 H94       -73.1651   25.7110  -73.9224 H         1 UNK         0.0784 
     95 H95       -72.5646   24.0539  -73.9007 H         1 UNK         0.0784 
     96 H96       -73.1626   24.8546  -76.2483 H         1 UNK         0.3213 
     97 H97       -72.1781   24.9562  -79.6790 H         1 UNK         0.0855 
     98 H98       -73.7465   23.0207  -79.6897 H         1 UNK         0.0814 
     99 H99       -72.1891   22.5579  -79.0243 H         1 UNK         0.0814 
    100 H100      -73.5514   22.8239  -77.9483 H         1 UNK         0.0814 
    101 H101      -74.6849   25.0381  -78.2113 H         1 UNK         0.3105 
    102 H102      -74.9751   28.5780  -78.1622 H         1 UNK         0.0547 
    103 H103      -76.4568   26.5116  -79.8787 H         1 UNK         0.0837 
    104 H104      -75.6872   27.9741  -80.4811 H         1 UNK         0.0837 
    105 H105      -77.0663   28.0953  -79.4010 H         1 UNK         0.0837 
    106 H106      -76.7063   26.3852  -77.4293 H         1 UNK         0.3020 
    107 H107      -75.6542   26.1614  -74.0672 H         1 UNK         0.1245 
    108 H108      -77.0922   28.1294  -73.9531 H         1 UNK         0.0781 
    109 H109      -77.9940   26.7076  -73.5773 H         1 UNK         0.0781 
    110 H110      -79.2698   29.7488  -76.6689 H         1 UNK         0.0836 
    111 H111      -77.5454   29.5098  -76.5033 H         1 UNK         0.0836 
    112 H112      -77.7948   24.8603  -75.2288 H         1 UNK         0.3022 
    113 H113      -76.3196   22.4669  -77.2603 H         1 UNK         0.0747 
    114 H114      -76.8378   21.7876  -74.3125 H         1 UNK         0.0793 
    115 H115      -76.8435   20.6409  -75.6541 H         1 UNK         0.0793 
    116 H116      -75.3541   21.4458  -75.1919 H         1 UNK         0.0793 
    117 H117      -78.7554   22.3813  -75.7496 H         1 UNK         0.3047 
    118 H118      -80.5595   24.8607  -77.3175 H         1 UNK         0.0822 
    119 H119      -82.1310   23.2082  -78.2803 H         1 UNK         0.0807 
    120 H120      -80.9156   21.9341  -78.1624 H         1 UNK         0.0807 
    121 H121      -80.6813   23.2835  -79.2646 H         1 UNK         0.0807 
    122 H122      -81.7029   22.7930  -75.9033 H         1 UNK         0.2946 
    123 H123      -82.4312   23.3165  -73.7811 H         1 UNK         0.1144 
    124 H124      -81.4203   21.8517  -72.0114 H         1 UNK         0.0793 
    125 H125      -79.8012   22.2998  -72.5479 H         1 UNK         0.0793 
    126 H126      -80.8600   21.3762  -73.6052 H         1 UNK         0.0793 
    127 H127      -80.7032   24.4221  -71.6898 H         1 UNK         0.2896 
@<TRIPOS>BOND
     1    1    2 1    
     2    1   67 1    
     3    1   68 1    
     4    1   69 1    
     5    2    3 2    
     6    2    4 am   BACKBONE|DICT|INTERRES
     7    4    5 1    
     8    4   70 1    
     9    5    6 1    
    10    5   65 1    
    11    5   71 1    
    12    6    7 1    
    13    6   72 1    
    14    6   73 1    
    15    7    8 1    
    16    8    9 1    
    17    8   74 1    
    18    8   75 1    
    19    9   10 ar   
    20    9   14 ar   
    21   10   11 ar   
    22   10   76 1    
    23   11   12 ar   
    24   11   48 1    
    25   12   13 ar   
    26   12   77 1    
    27   13   14 ar   
    28   13   15 1    
    29   14   78 1    
    30   15   16 1    
    31   15   79 1    
    32   15   80 1    
    33   16   17 1    
    34   17   18 1    
    35   17   81 1    
    36   17   82 1    
    37   18   19 1    
    38   18   22 1    
    39   18   83 1    
    40   19   20 am   BACKBONE|DICT|INTERRES
    41   19   21 2    
    42   20   84 1    
    43   20   85 1    
    44   22   23 am   BACKBONE|DICT|INTERRES
    45   22   86 1    
    46   23   24 2    
    47   23   25 1    
    48   25   26 1    
    49   25   27 1    
    50   25   87 1    
    51   26   88 1    
    52   26   89 1    
    53   26   90 1    
    54   27   28 am   BACKBONE|DICT|INTERRES
    55   27   91 1    
    56   28   29 2    
    57   28   30 1    
    58   30   31 1    
    59   30   32 1    
    60   30   92 1    
    61   31   93 1    
    62   31   94 1    
    63   31   95 1    
    64   32   33 am   BACKBONE|DICT|INTERRES
    65   32   96 1    
    66   33   34 2    
    67   33   35 1    
    68   35   36 1    
    69   35   37 1    
    70   35   97 1    
    71   36   98 1    
    72   36   99 1    
    73   36  100 1    
    74   37   38 am   BACKBONE|DICT|INTERRES
    75   37  101 1    
    76   38   39 2    
    77   38   40 1    
    78   40   41 1    
    79   40   42 1    
    80   40  102 1    
    81   41  103 1    
    82   41  104 1    
    83   41  105 1    
    84   42   43 am   BACKBONE|DICT|INTERRES
    85   42  106 1    
    86   43   44 2    
    87   43   45 1    
    88   45   46 1    
    89   45   49 1    
    90   45  107 1    
    91   46   47 1    
    92   46  108 1    
    93   46  109 1    
    94   47   48 1    
    95   48  110 1    
    96   48  111 1    
    97   49   50 am   BACKBONE|DICT|INTERRES
    98   49  112 1    
    99   50   51 2    
   100   50   52 1    
   101   52   53 1    
   102   52   54 1    
   103   52  113 1    
   104   53  114 1    
   105   53  115 1    
   106   53  116 1    
   107   54   55 am   BACKBONE|DICT|INTERRES
   108   54  117 1    
   109   55   56 2    
   110   55   57 1    
   111   57   58 1    
   112   57   59 1    
   113   57  118 1    
   114   58  119 1    
   115   58  120 1    
   116   58  121 1    
   117   59   60 am   BACKBONE|DICT|INTERRES
   118   59  122 1    
   119   60   61 2    
   120   60   62 1    
   121   62   63 1    
   122   62   64 1    
   123   62  123 1    
   124   63  124 1    
   125   63  125 1    
   126   63  126 1    
   127   64   65 am   BACKBONE|DICT|INTERRES
   128   64  127 1    
   129   65   66 2    
@<TRIPOS>SUBSTRUCTURE
     1 UNK         1 GROUP             0       ****    0 ROOT    
