@<TRIPOS>MOLECULE
3R135
127   129    1
SMALL
USER_CHARGES


@<TRIPOS>ATOM
      1 CA        -75.9543   27.1673  -70.7312 C.3       0 UNK        -0.1998 
      2 C         -77.1995   26.4529  -70.2334 C.2       0 UNK         0.4909 
      3 O         -77.1148   25.6310  -69.3208 O.2       0 UNK        -0.5240 
      4 N         -78.3572   26.7559  -70.8345 N.am      1 UNK        -0.4739 
      5 CA        -79.6604   26.1720  -70.4779 C.3       1 UNK         0.0864 
      6 C6        -80.8371   27.1260  -70.8053 C.3       11 UNK        -0.0881 
      7 S7        -80.6478   28.7488  -69.9874 S.3       11 UNK        -0.2682 
      8 C8        -80.9863   29.9199  -71.3430 C.3       11 UNK         0.0289 
      9 C9        -80.0565   29.7498  -72.5393 C.ar      11 UNK        -0.0687 
     10 C10       -80.5901   29.4748  -73.8024 C.ar      11 UNK        -0.0823 
     11 C11       -79.7649   29.3533  -74.9247 C.ar      11 UNK        -0.0830 
     12 C12       -78.3806   29.5051  -74.7594 C.ar      11 UNK        -0.1021 
     13 C13       -77.8288   29.7479  -73.4991 C.ar      11 UNK        -0.0753 
     14 C14       -78.6729   29.8862  -72.3939 C.ar      11 UNK        -0.0933 
     15 C15       -76.3191   29.8267  -73.3310 C.3       11 UNK         0.0166 
     16 S16       -75.6398   31.4128  -73.9016 S.3       11 UNK        -0.2615 
     17 C17       -73.8837   31.1781  -73.4581 C.3       11 UNK        -0.0865 
     18 CA        -72.9699   30.9265  -74.6993 C.3       10 UNK         0.0862 
     19 C         -72.2042   32.1967  -75.1804 C.2       10 UNK         0.5551 
     20 N         -70.9911   32.0731  -75.7054 N.am      10 UNK        -0.7319 
     21 O         -72.7233   33.3077  -75.1065 O.2       10 UNK        -0.5018 
     22 N         -72.1387   29.7171  -74.5585 N.am      10 UNK        -0.4509 
     23 C         -71.2338   29.4953  -73.5954 C.2       10 UNK         0.4899 
     24 O         -70.9839   30.3026  -72.6984 O.2       10 UNK        -0.4839 
     25 CA        -70.4817   28.1482  -73.6465 C.3       9 UNK         0.0222 
     26 CB        -69.6989   27.8552  -72.3488 C.3       9 UNK        -0.1966 
     27 N         -71.3283   26.9991  -73.9954 N.am      9 UNK        -0.4218 
     28 C         -72.4388   26.5694  -73.3761 C.2       9 UNK         0.5020 
     29 O         -72.9542   27.1377  -72.4123 O.2       9 UNK        -0.5274 
     30 CA        -73.0721   25.2795  -73.9410 C.3       8 UNK         0.0270 
     31 CB        -74.3716   24.8777  -73.2188 C.3       8 UNK        -0.1976 
     32 N         -73.3400   25.3941  -75.3766 N.am      8 UNK        -0.4313 
     33 C         -72.4247   25.2361  -76.3454 C.2       8 UNK         0.5041 
     34 O         -71.2572   24.9126  -76.1228 O.2       8 UNK        -0.5577 
     35 CA        -72.8498   25.5567  -77.7914 C.3       7 UNK         0.0284 
     36 CB        -73.3339   24.2849  -78.5016 C.3       7 UNK        -0.1958 
     37 N         -73.8931   26.5811  -77.8696 N.am      7 UNK        -0.4454 
     38 C         -73.7723   27.8324  -77.4040 C.2       7 UNK         0.5089 
     39 O         -72.7168   28.3041  -76.9793 O.2       7 UNK        -0.5125 
     40 CA        -75.0470   28.6911  -77.3435 C.3       6 UNK         0.0408 
     41 CB        -75.0139   29.7903  -78.4156 C.3       6 UNK        -0.1791 
     42 N         -76.3095   27.9532  -77.4443 N.am      6 UNK        -0.4762 
     43 C         -76.7447   27.0064  -76.6004 C.2       6 UNK         0.5007 
     44 O         -76.0526   26.5349  -75.6957 O.2       6 UNK        -0.5032 
     45 CA        -78.1956   26.5048  -76.7763 C.3       5 UNK         0.0783 
     46 C46       -79.0289   27.1884  -77.9017 C.3       11 UNK        -0.0857 
     47 S47       -79.3153   28.9860  -77.7221 S.3       11 UNK        -0.2512 
     48 C48       -80.4315   29.0817  -76.2785 C.3       11 UNK         0.0225 
     49 N         -78.2274   25.0451  -76.8963 N.am      5 UNK        -0.4615 
     50 C         -77.6552   24.3082  -77.8629 C.2       4 UNK         0.5053 
     51 O         -76.9659   24.7874  -78.7644 O.2       4 UNK        -0.5105 
     52 CA        -77.8756   22.7806  -77.8372 C.3       4 UNK         0.0263 
     53 CB        -76.5648   22.0476  -77.5082 C.3       4 UNK        -0.1981 
     54 N         -78.9038   22.3497  -76.8886 N.am      4 UNK        -0.4224 
     55 C         -80.2256   22.5172  -77.0418 C.2       3 UNK         0.4895 
     56 O         -80.7466   22.9623  -78.0645 O.2       3 UNK        -0.5091 
     57 CA        -81.1140   22.1596  -75.8329 C.3       3 UNK         0.0250 
     58 CB        -81.7477   20.7719  -76.0230 C.3       3 UNK        -0.1996 
     59 N         -80.4075   22.1981  -74.5440 N.am      3 UNK        -0.4254 
     60 C         -79.8515   23.2950  -74.0104 C.2       2 UNK         0.5004 
     61 O         -79.8854   24.4077  -74.5427 O.2       2 UNK        -0.5226 
     62 CA        -79.0361   23.0899  -72.7267 C.3       2 UNK         0.0269 
     63 CB        -77.6089   22.6382  -73.0812 C.3       2 UNK        -0.1926 
     64 N         -78.9517   24.3346  -71.9666 N.am      2 UNK        -0.4687 
     65 C         -79.8840   24.7817  -71.1154 C.2       1 UNK         0.5165 
     66 O         -80.8950   24.1394  -70.8252 O.2       1 UNK        -0.5079 
     67 H67       -75.0631   26.5752  -70.5241 H         1 UNK         0.0900 
     68 H68       -75.8446   28.1299  -70.2329 H         1 UNK         0.0900 
     69 H69       -75.9979   27.3325  -71.8067 H         1 UNK         0.0900 
     70 H70       -78.3804   27.4544  -71.5647 H         1 UNK         0.2959 
     71 H71       -79.6721   26.0070  -69.3979 H         1 UNK         0.1079 
     72 H72       -81.7828   26.6977  -70.4671 H         1 UNK         0.0837 
     73 H73       -80.9350   27.2529  -71.8845 H         1 UNK         0.0837 
     74 H74       -82.0299   29.8106  -71.6421 H         1 UNK         0.0685 
     75 H75       -80.8837   30.9363  -70.9606 H         1 UNK         0.0685 
     76 H76       -81.6606   29.3697  -73.9176 H         1 UNK         0.1434 
     77 H77       -77.7120   29.4440  -75.6031 H         1 UNK         0.1329 
     78 H78       -78.2565   30.0925  -71.4171 H         1 UNK         0.1335 
     79 H79       -75.8446   29.0103  -73.8789 H         1 UNK         0.0680 
     80 H80       -76.0544   29.6927  -72.2817 H         1 UNK         0.0680 
     81 H81       -73.8165   30.3467  -72.7547 H         1 UNK         0.1032 
     82 H82       -73.5495   32.0443  -72.8839 H         1 UNK         0.1032 
     83 H83       -73.6110   30.6929  -75.5470 H         1 UNK         0.0461 
     84 H84       -70.5030   32.8950  -76.0245 H         1 UNK         0.3453 
     85 H85       -70.5629   31.1652  -75.7880 H         1 UNK         0.3453 
     86 H86       -72.2511   29.0300  -75.3002 H         1 UNK         0.2984 
     87 H87       -69.7545   28.2421  -74.4541 H         1 UNK         0.0554 
     88 H88       -69.1426   26.9208  -72.4221 H         1 UNK         0.0847 
     89 H89       -70.3625   27.7837  -71.4862 H         1 UNK         0.0847 
     90 H90       -68.9755   28.6441  -72.1387 H         1 UNK         0.0847 
     91 H91       -71.0205   26.4476  -74.7913 H         1 UNK         0.3141 
     92 H92       -72.3502   24.4762  -73.7793 H         1 UNK         0.0743 
     93 H93       -75.1506   25.6301  -73.3405 H         1 UNK         0.0784 
     94 H94       -74.7551   23.9322  -73.6010 H         1 UNK         0.0784 
     95 H95       -74.2030   24.7479  -72.1491 H         1 UNK         0.0784 
     96 H96       -74.2674   25.7291  -75.6275 H         1 UNK         0.3213 
     97 H97       -71.9713   25.9359  -78.3176 H         1 UNK         0.0855 
     98 H98       -74.2192   23.8753  -78.0168 H         1 UNK         0.0814 
     99 H99       -72.5647   23.5114  -78.4878 H         1 UNK         0.0814 
    100 H100      -73.5812   24.4790  -79.5454 H         1 UNK         0.0814 
    101 H101      -74.8052   26.2836  -78.1901 H         1 UNK         0.3105 
    102 H102      -75.0546   29.1717  -76.3648 H         1 UNK         0.0547 
    103 H103      -75.0496   29.3725  -79.4224 H         1 UNK         0.0837 
    104 H104      -75.8526   30.4781  -78.3053 H         1 UNK         0.0837 
    105 H105      -74.1012   30.3834  -78.3405 H         1 UNK         0.0837 
    106 H106      -76.9590   28.2762  -78.1492 H         1 UNK         0.3020 
    107 H107      -78.6882   26.7214  -75.8269 H         1 UNK         0.1245 
    108 H108      -78.5665   27.0179  -78.8755 H         1 UNK         0.0781 
    109 H109      -80.0079   26.7101  -77.9651 H         1 UNK         0.0781 
    110 H110      -81.1437   29.8855  -76.4709 H         1 UNK         0.0836 
    111 H111      -81.0201   28.1652  -76.2144 H         1 UNK         0.0836 
    112 H112      -78.7591   24.5773  -76.1692 H         1 UNK         0.3022 
    113 H113      -78.1924   22.4814  -78.8386 H         1 UNK         0.0747 
    114 H114      -76.7130   20.9688  -77.4544 H         1 UNK         0.0793 
    115 H115      -75.8193   22.2249  -78.2834 H         1 UNK         0.0793 
    116 H116      -76.1411   22.3783  -76.5587 H         1 UNK         0.0793 
    117 H117      -78.5770   21.9559  -76.0192 H         1 UNK         0.3047 
    118 H118      -81.9154   22.9007  -75.7927 H         1 UNK         0.0822 
    119 H119      -82.4494   20.5419  -75.2209 H         1 UNK         0.0807 
    120 H120      -80.9948   19.9831  -76.0490 H         1 UNK         0.0807 
    121 H121      -82.3040   20.7219  -76.9603 H         1 UNK         0.0807 
    122 H122      -80.3238   21.3194  -74.0520 H         1 UNK         0.2946 
    123 H123      -79.5155   22.3230  -72.1134 H         1 UNK         0.1144 
    124 H124      -76.9912   22.5357  -72.1886 H         1 UNK         0.0793 
    125 H125      -77.1170   23.3468  -73.7492 H         1 UNK         0.0793 
    126 H126      -77.6141   21.6684  -73.5803 H         1 UNK         0.0793 
    127 H127      -78.1773   24.9458  -72.1782 H         1 UNK         0.2896 
@<TRIPOS>BOND
     1    1    2 1    
     2    1   67 1    
     3    1   68 1    
     4    1   69 1    
     5    2    3 2    
     6    2    4 am   BACKBONE|DICT|INTERRES
     7    4    5 1    
     8    4   70 1    
     9    5    6 1    
    10    5   65 1    
    11    5   71 1    
    12    6    7 1    
    13    6   72 1    
    14    6   73 1    
    15    7    8 1    
    16    8    9 1    
    17    8   74 1    
    18    8   75 1    
    19    9   10 ar   
    20    9   14 ar   
    21   10   11 ar   
    22   10   76 1    
    23   11   12 ar   
    24   11   48 1    
    25   12   13 ar   
    26   12   77 1    
    27   13   14 ar   
    28   13   15 1    
    29   14   78 1    
    30   15   16 1    
    31   15   79 1    
    32   15   80 1    
    33   16   17 1    
    34   17   18 1    
    35   17   81 1    
    36   17   82 1    
    37   18   19 1    
    38   18   22 1    
    39   18   83 1    
    40   19   20 am   BACKBONE|DICT|INTERRES
    41   19   21 2    
    42   20   84 1    
    43   20   85 1    
    44   22   23 am   BACKBONE|DICT|INTERRES
    45   22   86 1    
    46   23   24 2    
    47   23   25 1    
    48   25   26 1    
    49   25   27 1    
    50   25   87 1    
    51   26   88 1    
    52   26   89 1    
    53   26   90 1    
    54   27   28 am   BACKBONE|DICT|INTERRES
    55   27   91 1    
    56   28   29 2    
    57   28   30 1    
    58   30   31 1    
    59   30   32 1    
    60   30   92 1    
    61   31   93 1    
    62   31   94 1    
    63   31   95 1    
    64   32   33 am   BACKBONE|DICT|INTERRES
    65   32   96 1    
    66   33   34 2    
    67   33   35 1    
    68   35   36 1    
    69   35   37 1    
    70   35   97 1    
    71   36   98 1    
    72   36   99 1    
    73   36  100 1    
    74   37   38 am   BACKBONE|DICT|INTERRES
    75   37  101 1    
    76   38   39 2    
    77   38   40 1    
    78   40   41 1    
    79   40   42 1    
    80   40  102 1    
    81   41  103 1    
    82   41  104 1    
    83   41  105 1    
    84   42   43 am   BACKBONE|DICT|INTERRES
    85   42  106 1    
    86   43   44 2    
    87   43   45 1    
    88   45   46 1    
    89   45   49 1    
    90   45  107 1    
    91   46   47 1    
    92   46  108 1    
    93   46  109 1    
    94   47   48 1    
    95   48  110 1    
    96   48  111 1    
    97   49   50 am   BACKBONE|DICT|INTERRES
    98   49  112 1    
    99   50   51 2    
   100   50   52 1    
   101   52   53 1    
   102   52   54 1    
   103   52  113 1    
   104   53  114 1    
   105   53  115 1    
   106   53  116 1    
   107   54   55 am   BACKBONE|DICT|INTERRES
   108   54  117 1    
   109   55   56 2    
   110   55   57 1    
   111   57   58 1    
   112   57   59 1    
   113   57  118 1    
   114   58  119 1    
   115   58  120 1    
   116   58  121 1    
   117   59   60 am   BACKBONE|DICT|INTERRES
   118   59  122 1    
   119   60   61 2    
   120   60   62 1    
   121   62   63 1    
   122   62   64 1    
   123   62  123 1    
   124   63  124 1    
   125   63  125 1    
   126   63  126 1    
   127   64   65 am   BACKBONE|DICT|INTERRES
   128   64  127 1    
   129   65   66 2    
@<TRIPOS>SUBSTRUCTURE
     1 UNK         1 GROUP             0       ****    0 ROOT    
