@<TRIPOS>MOLECULE
3R135
127   129    1
SMALL
USER_CHARGES


@<TRIPOS>ATOM
      1 CA        -81.5340   27.0655  -72.8407 C.3       0 UNK        -0.1998 
      2 C         -80.5559   26.0453  -73.4011 C.2       0 UNK         0.4909 
      3 O         -80.7266   25.5908  -74.5320 O.2       0 UNK        -0.5240 
      4 N         -79.5285   25.6846  -72.6220 N.am      1 UNK        -0.4739 
      5 CA        -78.4772   24.7341  -72.9995 C.3       1 UNK         0.0864 
      6 C6        -77.3205   24.7047  -71.9731 C.3       11 UNK        -0.0881 
      7 S7        -76.3560   26.2479  -72.0443 S.3       11 UNK        -0.2682 
      8 C8        -77.0922   27.2256  -70.6985 C.3       11 UNK         0.0289 
      9 C9        -77.0991   28.7011  -71.0618 C.ar      11 UNK        -0.0687 
     10 C10       -78.0070   29.1765  -72.0123 C.ar      11 UNK        -0.0823 
     11 C11       -77.9997   30.5210  -72.3987 C.ar      11 UNK        -0.0830 
     12 C12       -77.0982   31.3982  -71.7886 C.ar      11 UNK        -0.1021 
     13 C13       -76.1962   30.9395  -70.8236 C.ar      11 UNK        -0.0753 
     14 C14       -76.1973   29.5877  -70.4667 C.ar      11 UNK        -0.0933 
     15 C15       -75.2187   31.9053  -70.1690 C.3       11 UNK         0.0166 
     16 S16       -73.5285   31.7156  -70.8188 S.3       11 UNK        -0.2615 
     17 C17       -73.7413   32.1770  -72.5754 C.3       11 UNK        -0.0865 
     18 CA        -73.8175   30.9392  -73.5178 C.3       10 UNK         0.0862 
     19 C         -74.1540   31.3202  -74.9923 C.2       10 UNK         0.5551 
     20 N         -73.6928   30.5712  -75.9866 N.am      10 UNK        -0.7319 
     21 O         -74.8650   32.2906  -75.2411 O.2       10 UNK        -0.5018 
     22 N         -72.6644   30.0354  -73.3654 N.am      10 UNK        -0.4509 
     23 C         -71.3877   30.3102  -73.6684 C.2       10 UNK         0.4899 
     24 O         -71.0052   31.3910  -74.1182 O.2       10 UNK        -0.4839 
     25 CA        -70.3446   29.1993  -73.4254 C.3       9 UNK         0.0222 
     26 CB        -69.4346   29.5724  -72.2429 C.3       9 UNK        -0.1966 
     27 N         -70.9125   27.8670  -73.1846 N.am      9 UNK        -0.4218 
     28 C         -71.5964   27.1431  -74.0807 C.2       9 UNK         0.5020 
     29 O         -71.8084   27.5196  -75.2362 O.2       9 UNK        -0.5274 
     30 CA        -72.1383   25.7891  -73.5927 C.3       8 UNK         0.0270 
     31 CB        -72.7546   25.8709  -72.1820 C.3       8 UNK        -0.1976 
     32 N         -73.1483   25.3158  -74.5348 N.am      8 UNK        -0.4313 
     33 C         -73.2377   24.0723  -75.0235 C.2       8 UNK         0.5041 
     34 O         -72.5389   23.1340  -74.6366 O.2       8 UNK        -0.5577 
     35 CA        -74.2702   23.8186  -76.1421 C.3       7 UNK         0.0284 
     36 CB        -75.5173   23.1292  -75.5677 C.3       7 UNK        -0.1958 
     37 N         -74.6805   25.0381  -76.8436 N.am      7 UNK        -0.4454 
     38 C         -73.8701   25.8040  -77.5910 C.2       7 UNK         0.5089 
     39 O         -72.7372   25.4581  -77.9279 O.2       7 UNK        -0.5125 
     40 CA        -74.3840   27.1951  -78.0208 C.3       6 UNK         0.0408 
     41 CB        -74.5255   27.2702  -79.5502 C.3       6 UNK        -0.1791 
     42 N         -75.6551   27.6000  -77.4111 N.am      6 UNK        -0.4762 
     43 C         -75.8969   27.7937  -76.1043 C.2       6 UNK         0.5007 
     44 O         -75.0372   27.6974  -75.2288 O.2       6 UNK        -0.5032 
     45 CA        -77.3653   28.0647  -75.7110 C.3       5 UNK         0.0783 
     46 C46       -77.6095   29.5785  -75.5011 C.3       11 UNK        -0.0857 
     47 S47       -79.2833   29.8999  -74.8433 S.3       11 UNK        -0.2512 
     48 C48       -78.9564   31.0535  -73.4641 C.3       11 UNK         0.0225 
     49 N         -78.3212   27.4907  -76.6734 N.am      5 UNK        -0.4615 
     50 C         -78.4640   26.1854  -76.9309 C.2       4 UNK         0.5053 
     51 O         -77.7980   25.3017  -76.3863 O.2       4 UNK        -0.5105 
     52 CA        -79.5049   25.7938  -77.9815 C.3       4 UNK         0.0263 
     53 CB        -78.8144   25.0490  -79.1442 C.3       4 UNK        -0.1981 
     54 N         -80.4762   24.9556  -77.2907 N.am      4 UNK        -0.4224 
     55 C         -81.5243   24.2920  -77.7903 C.2       3 UNK         0.4895 
     56 O         -81.8848   24.3436  -78.9677 O.2       3 UNK        -0.5091 
     57 CA        -82.2921   23.4181  -76.7758 C.3       3 UNK         0.0250 
     58 CB        -83.2425   22.3989  -77.4408 C.3       3 UNK        -0.1996 
     59 N         -81.3867   22.7660  -75.8162 N.am      3 UNK        -0.4254 
     60 C         -80.4212   21.8725  -76.0886 C.2       2 UNK         0.5004 
     61 O         -80.2395   21.3635  -77.1957 O.2       2 UNK        -0.5226 
     62 CA        -79.4631   21.5540  -74.9295 C.3       2 UNK         0.0269 
     63 CB        -78.3302   20.5908  -75.3330 C.3       2 UNK        -0.1926 
     64 N         -78.8778   22.8084  -74.4533 N.am      2 UNK        -0.4687 
     65 C         -79.0643   23.3301  -73.2356 C.2       1 UNK         0.5165 
     66 O         -79.6864   22.7701  -72.3304 O.2       1 UNK        -0.5079 
     67 H67       -81.2645   27.3800  -71.8327 H         1 UNK         0.0900 
     68 H68       -82.5381   26.6439  -72.8095 H         1 UNK         0.0900 
     69 H69       -81.5544   27.9495  -73.4776 H         1 UNK         0.0900 
     70 H70       -79.4678   26.0492  -71.6840 H         1 UNK         0.2959 
     71 H71       -78.0631   25.0850  -73.9434 H         1 UNK         0.1079 
     72 H72       -77.6869   24.5250  -70.9605 H         1 UNK         0.0837 
     73 H73       -76.6295   23.8888  -72.1950 H         1 UNK         0.0837 
     74 H74       -78.1142   26.9029  -70.5003 H         1 UNK         0.0685 
     75 H75       -76.5301   27.0493  -69.7802 H         1 UNK         0.0685 
     76 H76       -78.7017   28.4879  -72.4709 H         1 UNK         0.1434 
     77 H77       -77.0927   32.4422  -72.0708 H         1 UNK         0.1329 
     78 H78       -75.4897   29.2277  -69.7324 H         1 UNK         0.1335 
     79 H79       -75.5436   32.9384  -70.3028 H         1 UNK         0.0680 
     80 H80       -75.2034   31.7287  -69.0926 H         1 UNK         0.0680 
     81 H81       -72.9102   32.8222  -72.8639 H         1 UNK         0.1032 
     82 H82       -74.6364   32.7930  -72.6728 H         1 UNK         0.1032 
     83 H83       -74.6754   30.3463  -73.1997 H         1 UNK         0.0461 
     84 H84       -73.1510   29.7433  -75.7844 H         1 UNK         0.3453 
     85 H85       -73.9109   30.8190  -76.9376 H         1 UNK         0.3453 
     86 H86       -72.8825   29.1127  -73.0221 H         1 UNK         0.2984 
     87 H87       -69.7273   29.1381  -74.3241 H         1 UNK         0.0554 
     88 H88       -68.6380   28.8411  -72.1050 H         1 UNK         0.0847 
     89 H89       -69.9949   29.6430  -71.3095 H         1 UNK         0.0847 
     90 H90       -68.9564   30.5393  -72.4071 H         1 UNK         0.0847 
     91 H91       -70.7844   27.4857  -72.2582 H         1 UNK         0.3141 
     92 H92       -71.2944   25.0965  -73.5735 H         1 UNK         0.0743 
     93 H93       -73.4663   26.6933  -72.1028 H         1 UNK         0.0784 
     94 H94       -73.2815   24.9514  -71.9256 H         1 UNK         0.0784 
     95 H95       -71.9910   26.0205  -71.4185 H         1 UNK         0.0784 
     96 H96       -73.7245   26.0482  -74.9410 H         1 UNK         0.3213 
     97 H97       -73.8089   23.1501  -76.8719 H         1 UNK         0.0855 
     98 H98       -76.0026   23.7494  -74.8137 H         1 UNK         0.0814 
     99 H99       -75.2590   22.1810  -75.0943 H         1 UNK         0.0814 
    100 H100      -76.2456   22.9155  -76.3498 H         1 UNK         0.0814 
    101 H101      -75.6176   25.3723  -76.6516 H         1 UNK         0.3105 
    102 H102      -73.6281   27.9191  -77.7101 H         1 UNK         0.0547 
    103 H103      -73.5844   27.0227  -80.0434 H         1 UNK         0.0837 
    104 H104      -75.2789   26.5737  -79.9201 H         1 UNK         0.0837 
    105 H105      -74.8026   28.2727  -79.8762 H         1 UNK         0.0837 
    106 H106      -76.4381   27.6924  -78.0416 H         1 UNK         0.3020 
    107 H107      -77.5210   27.5591  -74.7547 H         1 UNK         0.1245 
    108 H108      -77.4914   30.1267  -76.4376 H         1 UNK         0.0781 
    109 H109      -76.8676   29.9901  -74.8152 H         1 UNK         0.0781 
    110 H110      -79.9044   31.3025  -72.9860 H         1 UNK         0.0836 
    111 H111      -78.5712   31.9827  -73.8873 H         1 UNK         0.0836 
    112 H112      -78.9283   28.1523  -77.1357 H         1 UNK         0.3022 
    113 H113      -80.0118   26.6829  -78.3604 H         1 UNK         0.0747 
    114 H114      -79.5059   24.8426  -79.9604 H         1 UNK         0.0793 
    115 H115      -78.0005   25.6431  -79.5616 H         1 UNK         0.0793 
    116 H116      -78.3904   24.0984  -78.8170 H         1 UNK         0.0793 
    117 H117      -80.3481   24.9273  -76.2805 H         1 UNK         0.3047 
    118 H118      -82.9057   24.1067  -76.1927 H         1 UNK         0.0822 
    119 H119      -83.7662   21.7997  -76.6961 H         1 UNK         0.0807 
    120 H120      -82.7099   21.7188  -78.1060 H         1 UNK         0.0807 
    121 H121      -84.0004   22.9067  -78.0386 H         1 UNK         0.0807 
    122 H122      -81.4107   23.1508  -74.8809 H         1 UNK         0.2946 
    123 H123      -80.0551   21.0731  -74.1472 H         1 UNK         0.1144 
    124 H124      -77.6583   20.3974  -74.4968 H         1 UNK         0.0793 
    125 H125      -77.7351   20.9860  -76.1567 H         1 UNK         0.0793 
    126 H126      -78.7329   19.6294  -75.6543 H         1 UNK         0.0793 
    127 H127      -78.4046   23.3677  -75.1537 H         1 UNK         0.2896 
@<TRIPOS>BOND
     1    1    2 1    
     2    1   67 1    
     3    1   68 1    
     4    1   69 1    
     5    2    3 2    
     6    2    4 am   BACKBONE|DICT|INTERRES
     7    4    5 1    
     8    4   70 1    
     9    5    6 1    
    10    5   65 1    
    11    5   71 1    
    12    6    7 1    
    13    6   72 1    
    14    6   73 1    
    15    7    8 1    
    16    8    9 1    
    17    8   74 1    
    18    8   75 1    
    19    9   10 ar   
    20    9   14 ar   
    21   10   11 ar   
    22   10   76 1    
    23   11   12 ar   
    24   11   48 1    
    25   12   13 ar   
    26   12   77 1    
    27   13   14 ar   
    28   13   15 1    
    29   14   78 1    
    30   15   16 1    
    31   15   79 1    
    32   15   80 1    
    33   16   17 1    
    34   17   18 1    
    35   17   81 1    
    36   17   82 1    
    37   18   19 1    
    38   18   22 1    
    39   18   83 1    
    40   19   20 am   BACKBONE|DICT|INTERRES
    41   19   21 2    
    42   20   84 1    
    43   20   85 1    
    44   22   23 am   BACKBONE|DICT|INTERRES
    45   22   86 1    
    46   23   24 2    
    47   23   25 1    
    48   25   26 1    
    49   25   27 1    
    50   25   87 1    
    51   26   88 1    
    52   26   89 1    
    53   26   90 1    
    54   27   28 am   BACKBONE|DICT|INTERRES
    55   27   91 1    
    56   28   29 2    
    57   28   30 1    
    58   30   31 1    
    59   30   32 1    
    60   30   92 1    
    61   31   93 1    
    62   31   94 1    
    63   31   95 1    
    64   32   33 am   BACKBONE|DICT|INTERRES
    65   32   96 1    
    66   33   34 2    
    67   33   35 1    
    68   35   36 1    
    69   35   37 1    
    70   35   97 1    
    71   36   98 1    
    72   36   99 1    
    73   36  100 1    
    74   37   38 am   BACKBONE|DICT|INTERRES
    75   37  101 1    
    76   38   39 2    
    77   38   40 1    
    78   40   41 1    
    79   40   42 1    
    80   40  102 1    
    81   41  103 1    
    82   41  104 1    
    83   41  105 1    
    84   42   43 am   BACKBONE|DICT|INTERRES
    85   42  106 1    
    86   43   44 2    
    87   43   45 1    
    88   45   46 1    
    89   45   49 1    
    90   45  107 1    
    91   46   47 1    
    92   46  108 1    
    93   46  109 1    
    94   47   48 1    
    95   48  110 1    
    96   48  111 1    
    97   49   50 am   BACKBONE|DICT|INTERRES
    98   49  112 1    
    99   50   51 2    
   100   50   52 1    
   101   52   53 1    
   102   52   54 1    
   103   52  113 1    
   104   53  114 1    
   105   53  115 1    
   106   53  116 1    
   107   54   55 am   BACKBONE|DICT|INTERRES
   108   54  117 1    
   109   55   56 2    
   110   55   57 1    
   111   57   58 1    
   112   57   59 1    
   113   57  118 1    
   114   58  119 1    
   115   58  120 1    
   116   58  121 1    
   117   59   60 am   BACKBONE|DICT|INTERRES
   118   59  122 1    
   119   60   61 2    
   120   60   62 1    
   121   62   63 1    
   122   62   64 1    
   123   62  123 1    
   124   63  124 1    
   125   63  125 1    
   126   63  126 1    
   127   64   65 am   BACKBONE|DICT|INTERRES
   128   64  127 1    
   129   65   66 2    
@<TRIPOS>SUBSTRUCTURE
     1 UNK         1 GROUP             0       ****    0 ROOT    
