@<TRIPOS>MOLECULE
3R135
127   129    1
SMALL
USER_CHARGES


@<TRIPOS>ATOM
      1 CA        -84.0568   23.7067  -73.8752 C.3       0 UNK        -0.1998 
      2 C         -83.0672   23.1154  -72.8741 C.2       0 UNK         0.4909 
      3 O         -82.9980   21.8942  -72.7525 O.2       0 UNK        -0.5240 
      4 N         -82.2913   23.9145  -72.1271 N.am      1 UNK        -0.4739 
      5 CA        -82.1493   25.3719  -72.2019 C.3       1 UNK         0.0864 
      6 C6        -81.5729   25.9226  -70.8674 C.3       11 UNK        -0.0881 
      7 S7        -81.0949   27.6904  -70.8814 S.3       11 UNK        -0.2682 
      8 C8        -79.2817   27.5116  -70.7758 C.3       11 UNK         0.0289 
      9 C9        -78.4927   28.7225  -71.2602 C.ar      11 UNK        -0.0687 
     10 C10       -78.8556   29.4143  -72.4212 C.ar      11 UNK        -0.0823 
     11 C11       -78.0687   30.4679  -72.8988 C.ar      11 UNK        -0.0830 
     12 C12       -76.9021   30.8206  -72.2136 C.ar      11 UNK        -0.1021 
     13 C13       -76.5227   30.1332  -71.0565 C.ar      11 UNK        -0.0753 
     14 C14       -77.3317   29.0976  -70.5786 C.ar      11 UNK        -0.0933 
     15 C15       -75.2333   30.4973  -70.3316 C.3       11 UNK         0.0166 
     16 S16       -74.1034   29.0706  -70.2357 S.3       11 UNK        -0.2615 
     17 C17       -72.4734   29.8550  -70.4836 C.3       11 UNK        -0.0865 
     18 CA        -72.0426   29.8857  -71.9801 C.3       10 UNK         0.0862 
     19 C         -70.6819   30.6157  -72.2002 C.2       10 UNK         0.5551 
     20 N         -69.8443   30.1918  -73.1405 N.am      10 UNK        -0.7319 
     21 O         -70.3927   31.6044  -71.5305 O.2       10 UNK        -0.5018 
     22 N         -72.1482   28.5777  -72.6499 N.am      10 UNK        -0.4509 
     23 C         -71.4702   27.4623  -72.3458 C.2       10 UNK         0.4899 
     24 O         -70.6779   27.3630  -71.4086 O.2       10 UNK        -0.4839 
     25 CA        -71.7027   26.2487  -73.2645 C.3       9 UNK         0.0222 
     26 CB        -72.7664   25.3218  -72.6563 C.3       9 UNK        -0.1966 
     27 N         -72.0977   26.6152  -74.6306 N.am      9 UNK        -0.4218 
     28 C         -71.3210   27.2879  -75.4954 C.2       9 UNK         0.5020 
     29 O         -70.1853   27.6826  -75.2206 O.2       9 UNK        -0.5274 
     30 CA        -71.9274   27.6069  -76.8752 C.3       8 UNK         0.0270 
     31 CB        -70.8693   28.0022  -77.9278 C.3       8 UNK        -0.1976 
     32 N         -72.8064   26.5480  -77.3822 N.am      8 UNK        -0.4313 
     33 C         -72.4782   25.2846  -77.6957 C.2       8 UNK         0.5041 
     34 O         -71.3344   24.8344  -77.6156 O.2       8 UNK        -0.5577 
     35 CA        -73.6086   24.3456  -78.1670 C.3       7 UNK         0.0284 
     36 CB        -73.8251   23.2171  -77.1450 C.3       7 UNK        -0.1958 
     37 N         -74.8865   25.0244  -78.4059 N.am      7 UNK        -0.4454 
     38 C         -75.1515   25.8174  -79.4536 C.2       7 UNK         0.5089 
     39 O         -74.3722   25.9997  -80.3889 O.2       7 UNK        -0.5125 
     40 CA        -76.4917   26.5749  -79.4284 C.3       6 UNK         0.0408 
     41 CB        -77.6131   25.7135  -80.0290 C.3       6 UNK        -0.1791 
     42 N         -76.8826   27.0181  -78.0861 N.am      6 UNK        -0.4762 
     43 C         -76.1922   27.8735  -77.3157 C.2       6 UNK         0.5007 
     44 O         -75.1399   28.4092  -77.6612 O.2       6 UNK        -0.5032 
     45 CA        -76.7357   28.1055  -75.8924 C.3       5 UNK         0.0783 
     46 C46       -77.9591   29.0596  -75.8927 C.3       11 UNK        -0.0857 
     47 S47       -77.4735   30.7922  -75.6033 S.3       11 UNK        -0.2512 
     48 C48       -78.4816   31.2330  -74.1495 C.3       11 UNK         0.0225 
     49 N         -77.0322   26.8287  -75.2403 N.am      5 UNK        -0.4615 
     50 C         -76.1183   25.9094  -74.9020 C.2       4 UNK         0.5053 
     51 O         -74.9038   26.0704  -75.0284 O.2       4 UNK        -0.5105 
     52 CA        -76.6570   24.5695  -74.3740 C.3       4 UNK         0.0263 
     53 CB        -76.8027   24.6082  -72.8463 C.3       4 UNK        -0.1981 
     54 N         -77.9438   24.2163  -74.9820 N.am      4 UNK        -0.4224 
     55 C         -78.0822   23.8041  -76.2519 C.2       3 UNK         0.4895 
     56 O         -77.1341   23.6335  -77.0175 O.2       3 UNK        -0.5091 
     57 CA        -79.5159   23.5960  -76.7767 C.3       3 UNK         0.0250 
     58 CB        -80.0169   22.1846  -76.4325 C.3       3 UNK        -0.1996 
     59 N         -80.4693   24.5877  -76.2714 N.am      3 UNK        -0.4254 
     60 C         -80.3684   25.9103  -76.4619 C.2       2 UNK         0.5004 
     61 O         -79.5077   26.4276  -77.1723 O.2       2 UNK        -0.5226 
     62 CA        -81.3485   26.8262  -75.7048 C.3       2 UNK         0.0269 
     63 CB        -82.4777   27.2772  -76.6445 C.3       2 UNK        -0.1926 
     64 N         -81.9406   26.2874  -74.4710 N.am      2 UNK        -0.4687 
     65 C         -81.2938   25.7258  -73.4371 C.2       1 UNK         0.5165 
     66 O         -80.0897   25.4612  -73.4386 O.2       1 UNK        -0.5079 
     67 H67       -84.5981   24.5567  -73.4633 H         1 UNK         0.0900 
     68 H68       -84.8011   22.9590  -74.1492 H         1 UNK         0.0900 
     69 H69       -83.5496   24.0112  -74.7893 H         1 UNK         0.0900 
     70 H70       -81.6464   23.4667  -71.4917 H         1 UNK         0.2959 
     71 H71       -83.1340   25.8260  -72.3214 H         1 UNK         0.1079 
     72 H72       -82.3126   25.7895  -70.0762 H         1 UNK         0.0837 
     73 H73       -80.7139   25.3247  -70.5570 H         1 UNK         0.0837 
     74 H74       -79.0236   27.2718  -69.7431 H         1 UNK         0.0685 
     75 H75       -78.9675   26.6601  -71.3760 H         1 UNK         0.0685 
     76 H76       -79.7470   29.1235  -72.9594 H         1 UNK         0.1434 
     77 H77       -76.2866   31.6262  -72.5904 H         1 UNK         0.1329 
     78 H78       -77.0309   28.5579  -69.6909 H         1 UNK         0.1335 
     79 H79       -74.7377   31.3267  -70.8384 H         1 UNK         0.0680 
     80 H80       -75.4651   30.8421  -69.3231 H         1 UNK         0.0680 
     81 H81       -71.7395   29.3072  -69.8905 H         1 UNK         0.1032 
     82 H82       -72.4967   30.8628  -70.0649 H         1 UNK         0.1032 
     83 H83       -72.7666   30.5157  -72.4980 H         1 UNK         0.0461 
     84 H84       -68.9737   30.6795  -73.2802 H         1 UNK         0.3453 
     85 H85       -70.0611   29.3774  -73.6996 H         1 UNK         0.3453 
     86 H86       -72.7754   28.5436  -73.4392 H         1 UNK         0.2984 
     87 H87       -70.7632   25.6961  -73.3300 H         1 UNK         0.0554 
     88 H88       -73.7148   25.8425  -72.5213 H         1 UNK         0.0847 
     89 H89       -72.4533   24.9590  -71.6764 H         1 UNK         0.0847 
     90 H90       -72.9463   24.4496  -73.2852 H         1 UNK         0.0847 
     91 H91       -73.0419   26.3583  -74.9145 H         1 UNK         0.3141 
     92 H92       -72.5676   28.4761  -76.7199 H         1 UNK         0.0743 
     93 H93       -70.1427   27.2059  -78.0914 H         1 UNK         0.0784 
     94 H94       -71.3328   28.2368  -78.8861 H         1 UNK         0.0784 
     95 H95       -70.3150   28.8869  -77.6121 H         1 UNK         0.0784 
     96 H96       -73.7778   26.8210  -77.4817 H         1 UNK         0.3213 
     97 H97       -73.2821   23.8952  -79.1068 H         1 UNK         0.0855 
     98 H98       -74.1176   23.6093  -76.1713 H         1 UNK         0.0814 
     99 H99       -72.9114   22.6391  -77.0005 H         1 UNK         0.0814 
    100 H100      -74.5976   22.5223  -77.4750 H         1 UNK         0.0814 
    101 H101      -75.6227   24.8617  -77.7264 H         1 UNK         0.3105 
    102 H102      -76.3792   27.4673  -80.0472 H         1 UNK         0.0547 
    103 H103      -77.3685   25.4090  -81.0474 H         1 UNK         0.0837 
    104 H104      -77.7802   24.8060  -79.4484 H         1 UNK         0.0837 
    105 H105      -78.5551   26.2608  -80.0709 H         1 UNK         0.0837 
    106 H106      -77.7677   26.6608  -77.7288 H         1 UNK         0.3020 
    107 H107      -75.9311   28.5619  -75.3102 H         1 UNK         0.1245 
    108 H108      -78.6620   28.7661  -75.1151 H         1 UNK         0.0781 
    109 H109      -78.5305   29.0047  -76.8217 H         1 UNK         0.0781 
    110 H110      -79.5358   31.0665  -74.3771 H         1 UNK         0.0836 
    111 H111      -78.3797   32.3034  -73.9645 H         1 UNK         0.0836 
    112 H112      -78.0067   26.5939  -75.1264 H         1 UNK         0.3022 
    113 H113      -75.9329   23.7922  -74.6249 H         1 UNK         0.0747 
    114 H114      -77.1890   23.6653  -72.4591 H         1 UNK         0.0793 
    115 H115      -75.8413   24.7861  -72.3648 H         1 UNK         0.0793 
    116 H116      -77.4765   25.4025  -72.5293 H         1 UNK         0.0793 
    117 H117      -78.7754   24.4014  -74.4270 H         1 UNK         0.3047 
    118 H118      -79.4841   23.6933  -77.8639 H         1 UNK         0.0822 
    119 H119      -80.9922   21.9895  -76.8787 H         1 UNK         0.0807 
    120 H120      -80.1044   22.0370  -75.3551 H         1 UNK         0.0807 
    121 H121      -79.3316   21.4248  -76.8113 H         1 UNK         0.0807 
    122 H122      -81.2005   24.2503  -75.6646 H         1 UNK         0.2946 
    123 H123      -80.7809   27.7119  -75.4158 H         1 UNK         0.1144 
    124 H124      -82.0753   27.7091  -77.5624 H         1 UNK         0.0793 
    125 H125      -83.1023   28.0405  -76.1801 H         1 UNK         0.0793 
    126 H126      -83.1204   26.4439  -76.9313 H         1 UNK         0.0793 
    127 H127      -82.9317   26.4534  -74.3703 H         1 UNK         0.2896 
@<TRIPOS>BOND
     1    1    2 1    
     2    1   67 1    
     3    1   68 1    
     4    1   69 1    
     5    2    3 2    
     6    2    4 am   BACKBONE|DICT|INTERRES
     7    4    5 1    
     8    4   70 1    
     9    5    6 1    
    10    5   65 1    
    11    5   71 1    
    12    6    7 1    
    13    6   72 1    
    14    6   73 1    
    15    7    8 1    
    16    8    9 1    
    17    8   74 1    
    18    8   75 1    
    19    9   10 ar   
    20    9   14 ar   
    21   10   11 ar   
    22   10   76 1    
    23   11   12 ar   
    24   11   48 1    
    25   12   13 ar   
    26   12   77 1    
    27   13   14 ar   
    28   13   15 1    
    29   14   78 1    
    30   15   16 1    
    31   15   79 1    
    32   15   80 1    
    33   16   17 1    
    34   17   18 1    
    35   17   81 1    
    36   17   82 1    
    37   18   19 1    
    38   18   22 1    
    39   18   83 1    
    40   19   20 am   BACKBONE|DICT|INTERRES
    41   19   21 2    
    42   20   84 1    
    43   20   85 1    
    44   22   23 am   BACKBONE|DICT|INTERRES
    45   22   86 1    
    46   23   24 2    
    47   23   25 1    
    48   25   26 1    
    49   25   27 1    
    50   25   87 1    
    51   26   88 1    
    52   26   89 1    
    53   26   90 1    
    54   27   28 am   BACKBONE|DICT|INTERRES
    55   27   91 1    
    56   28   29 2    
    57   28   30 1    
    58   30   31 1    
    59   30   32 1    
    60   30   92 1    
    61   31   93 1    
    62   31   94 1    
    63   31   95 1    
    64   32   33 am   BACKBONE|DICT|INTERRES
    65   32   96 1    
    66   33   34 2    
    67   33   35 1    
    68   35   36 1    
    69   35   37 1    
    70   35   97 1    
    71   36   98 1    
    72   36   99 1    
    73   36  100 1    
    74   37   38 am   BACKBONE|DICT|INTERRES
    75   37  101 1    
    76   38   39 2    
    77   38   40 1    
    78   40   41 1    
    79   40   42 1    
    80   40  102 1    
    81   41  103 1    
    82   41  104 1    
    83   41  105 1    
    84   42   43 am   BACKBONE|DICT|INTERRES
    85   42  106 1    
    86   43   44 2    
    87   43   45 1    
    88   45   46 1    
    89   45   49 1    
    90   45  107 1    
    91   46   47 1    
    92   46  108 1    
    93   46  109 1    
    94   47   48 1    
    95   48  110 1    
    96   48  111 1    
    97   49   50 am   BACKBONE|DICT|INTERRES
    98   49  112 1    
    99   50   51 2    
   100   50   52 1    
   101   52   53 1    
   102   52   54 1    
   103   52  113 1    
   104   53  114 1    
   105   53  115 1    
   106   53  116 1    
   107   54   55 am   BACKBONE|DICT|INTERRES
   108   54  117 1    
   109   55   56 2    
   110   55   57 1    
   111   57   58 1    
   112   57   59 1    
   113   57  118 1    
   114   58  119 1    
   115   58  120 1    
   116   58  121 1    
   117   59   60 am   BACKBONE|DICT|INTERRES
   118   59  122 1    
   119   60   61 2    
   120   60   62 1    
   121   62   63 1    
   122   62   64 1    
   123   62  123 1    
   124   63  124 1    
   125   63  125 1    
   126   63  126 1    
   127   64   65 am   BACKBONE|DICT|INTERRES
   128   64  127 1    
   129   65   66 2    
@<TRIPOS>SUBSTRUCTURE
     1 UNK         1 GROUP             0       ****    0 ROOT    
