@<TRIPOS>MOLECULE
3R135
127   129    1
SMALL
USER_CHARGES


@<TRIPOS>ATOM
      1 CA        -80.4990   29.0236  -76.6829 C.3       0 UNK        -0.1998 
      2 C         -81.2981   28.4359  -75.5293 C.2       0 UNK         0.4909 
      3 O         -82.4916   28.1792  -75.6850 O.2       0 UNK        -0.5240 
      4 N         -80.6375   28.2200  -74.3831 N.am      1 UNK        -0.4739 
      5 CA        -81.1888   27.6890  -73.1267 C.3       1 UNK         0.0864 
      6 C6        -82.1197   28.6850  -72.3808 C.3       11 UNK        -0.0881 
      7 S7        -81.3355   30.2936  -72.0101 S.3       11 UNK        -0.2682 
      8 C8        -80.7074   30.0568  -70.3134 C.3       11 UNK         0.0289 
      9 C9        -79.2662   29.5690  -70.3221 C.ar      11 UNK        -0.0687 
     10 C10       -78.9764   28.2023  -70.2759 C.ar      11 UNK        -0.0823 
     11 C11       -77.6545   27.7555  -70.3668 C.ar      11 UNK        -0.0830 
     12 C12       -76.6146   28.6871  -70.4313 C.ar      11 UNK        -0.1021 
     13 C13       -76.8905   30.0561  -70.4530 C.ar      11 UNK        -0.0753 
     14 C14       -78.2179   30.4914  -70.4008 C.ar      11 UNK        -0.0933 
     15 C15       -75.7555   31.0647  -70.5423 C.3       11 UNK         0.0166 
     16 S16       -75.5761   31.7482  -72.2209 S.3       11 UNK        -0.2615 
     17 C17       -74.9218   30.3284  -73.1651 C.3       11 UNK        -0.0865 
     18 CA        -73.3801   30.3896  -73.3312 C.3       10 UNK         0.0862 
     19 C         -72.6404   29.7401  -72.1332 C.2       10 UNK         0.5551 
     20 N         -71.9817   30.5336  -71.3000 N.am      10 UNK        -0.7319 
     21 O         -72.6953   28.5286  -71.9336 O.2       10 UNK        -0.5018 
     22 N         -72.9651   29.7708  -74.5938 N.am      10 UNK        -0.4509 
     23 C         -71.8551   30.0956  -75.2676 C.2       10 UNK         0.4899 
     24 O         -71.0737   30.9808  -74.9138 O.2       10 UNK        -0.4839 
     25 CA        -71.5952   29.3116  -76.5671 C.3       9 UNK         0.0222 
     26 CB        -70.2533   29.6706  -77.2414 C.3       9 UNK        -0.1966 
     27 N         -71.7257   27.8624  -76.3895 N.am      9 UNK        -0.4218 
     28 C         -70.9856   27.0608  -75.6070 C.2       9 UNK         0.5020 
     29 O         -70.0394   27.4545  -74.9232 O.2       9 UNK        -0.5274 
     30 CA        -71.3501   25.5618  -75.5637 C.3       8 UNK         0.0270 
     31 CB        -71.8470   25.1757  -74.1599 C.3       8 UNK        -0.1976 
     32 N         -72.3589   25.1604  -76.5490 N.am      8 UNK        -0.4313 
     33 C         -72.1582   25.0405  -77.8686 C.2       8 UNK         0.5041 
     34 O         -71.0600   25.1722  -78.4093 O.2       8 UNK        -0.5577 
     35 CA        -73.4064   24.7872  -78.7365 C.3       7 UNK         0.0284 
     36 CB        -73.7313   23.2869  -78.8075 C.3       7 UNK        -0.1958 
     37 N         -74.5843   25.5315  -78.2720 N.am      7 UNK        -0.4454 
     38 C         -74.6677   26.8704  -78.2330 C.2       7 UNK         0.5089 
     39 O         -73.7819   27.6233  -78.6347 O.2       7 UNK        -0.5125 
     40 CA        -75.9162   27.4744  -77.5744 C.3       6 UNK         0.0408 
     41 CB        -77.0868   27.5469  -78.5674 C.3       6 UNK        -0.1791 
     42 N         -76.3075   26.7254  -76.3792 N.am      6 UNK        -0.4762 
     43 C         -75.6525   26.7814  -75.2086 C.2       6 UNK         0.5007 
     44 O         -74.6851   27.5148  -75.0059 O.2       6 UNK        -0.5032 
     45 CA        -76.1559   25.8516  -74.0838 C.3       5 UNK         0.0783 
     46 C46       -77.2961   26.5478  -73.3054 C.3       11 UNK        -0.0857 
     47 S47       -78.0138   25.5154  -71.9766 S.3       11 UNK        -0.2512 
     48 C48       -77.3467   26.2674  -70.4527 C.3       11 UNK         0.0225 
     49 N         -76.5688   24.5418  -74.5951 N.am      5 UNK        -0.4615 
     50 C         -75.7738   23.6581  -75.2106 C.2       4 UNK         0.5053 
     51 O         -74.5686   23.8252  -75.3811 O.2       4 UNK        -0.5105 
     52 CA        -76.4581   22.4085  -75.7896 C.3       4 UNK         0.0263 
     53 CB        -76.5142   21.2896  -74.7387 C.3       4 UNK        -0.1981 
     54 N         -77.8110   22.6838  -76.2832 N.am      4 UNK        -0.4224 
     55 C         -78.1239   23.5526  -77.2528 C.2       3 UNK         0.4895 
     56 O         -77.2814   24.1840  -77.8917 O.2       3 UNK        -0.5091 
     57 CA        -79.6199   23.8174  -77.5086 C.3       3 UNK         0.0250 
     58 CB        -80.2556   22.6753  -78.3247 C.3       3 UNK        -0.1996 
     59 N         -80.4011   24.1261  -76.2955 N.am      3 UNK        -0.4254 
     60 C         -80.6772   23.3316  -75.2478 C.2       2 UNK         0.5004 
     61 O         -80.2968   22.1628  -75.1610 O.2       2 UNK        -0.5226 
     62 CA        -81.4631   23.9629  -74.0866 C.3       2 UNK         0.0269 
     63 CB        -81.3142   23.1706  -72.7696 C.3       2 UNK        -0.1926 
     64 N         -81.0640   25.3581  -73.8785 N.am      2 UNK        -0.4687 
     65 C         -81.8312   26.2933  -73.3036 C.2       1 UNK         0.5165 
     66 O         -82.9872   26.0852  -72.9285 O.2       1 UNK        -0.5079 
     67 H67       -79.4619   29.2147  -76.4072 H         1 UNK         0.0900 
     68 H68       -80.5062   28.3399  -77.5313 H         1 UNK         0.0900 
     69 H69       -80.9422   29.9666  -77.0022 H         1 UNK         0.0900 
     70 H70       -79.6683   28.4983  -74.3312 H         1 UNK         0.2959 
     71 H71       -80.3263   27.5165  -72.4870 H         1 UNK         0.1079 
     72 H72       -82.4815   28.2490  -71.4479 H         1 UNK         0.0837 
     73 H73       -83.0110   28.8811  -72.9795 H         1 UNK         0.0837 
     74 H74       -80.7641   31.0107  -69.7868 H         1 UNK         0.0685 
     75 H75       -81.3463   29.3697  -69.7570 H         1 UNK         0.0685 
     76 H76       -79.7806   27.4820  -70.2157 H         1 UNK         0.1434 
     77 H77       -75.5894   28.3470  -70.4945 H         1 UNK         0.1329 
     78 H78       -78.4351   31.5503  -70.4395 H         1 UNK         0.1335 
     79 H79       -74.8126   30.6182  -70.2237 H         1 UNK         0.0680 
     80 H80       -75.9498   31.8853  -69.8502 H         1 UNK         0.0680 
     81 H81       -75.4015   30.3743  -74.1443 H         1 UNK         0.1032 
     82 H82       -75.2473   29.3800  -72.7370 H         1 UNK         0.1032 
     83 H83       -73.0953   31.4430  -73.3848 H         1 UNK         0.0461 
     84 H84       -71.9387   31.5286  -71.4560 H         1 UNK         0.3453 
     85 H85       -71.5052   30.1286  -70.5097 H         1 UNK         0.3453 
     86 H86       -73.5169   28.9701  -74.8938 H         1 UNK         0.2984 
     87 H87       -72.3899   29.6019  -77.2557 H         1 UNK         0.0554 
     88 H88       -70.2127   30.7324  -77.4872 H         1 UNK         0.0847 
     89 H89       -70.1173   29.1183  -78.1711 H         1 UNK         0.0847 
     90 H90       -69.4017   29.4556  -76.5953 H         1 UNK         0.0847 
     91 H91       -72.4764   27.4376  -76.9201 H         1 UNK         0.3141 
     92 H92       -70.4355   25.0015  -75.7684 H         1 UNK         0.0743 
     93 H93       -71.0983   25.4058  -73.4006 H         1 UNK         0.0784 
     94 H94       -72.7554   25.7173  -73.8935 H         1 UNK         0.0784 
     95 H95       -72.0591   24.1085  -74.0916 H         1 UNK         0.0784 
     96 H96       -73.2777   24.9227  -76.1803 H         1 UNK         0.3213 
     97 H97       -73.1801   25.1330  -79.7474 H         1 UNK         0.0855 
     98 H98       -73.9184   22.8653  -77.8205 H         1 UNK         0.0814 
     99 H99       -72.8998   22.7315  -79.2433 H         1 UNK         0.0814 
    100 H100      -74.6086   23.0973  -79.4264 H         1 UNK         0.0814 
    101 H101      -75.3844   24.9903  -77.9599 H         1 UNK         0.3105 
    102 H102      -75.6737   28.4962  -77.2731 H         1 UNK         0.0547 
    103 H103      -76.8207   28.1552  -79.4329 H         1 UNK         0.0837 
    104 H104      -77.9657   28.0020  -78.1129 H         1 UNK         0.0837 
    105 H105      -77.3725   26.5641  -78.9416 H         1 UNK         0.0837 
    106 H106      -77.0462   26.0459  -76.4934 H         1 UNK         0.3020 
    107 H107      -75.3191   25.6895  -73.4005 H         1 UNK         0.1245 
    108 H108      -78.1097   26.8074  -73.9835 H         1 UNK         0.0781 
    109 H109      -76.9435   27.4951  -72.8986 H         1 UNK         0.0781 
    110 H110      -76.2712   26.0873  -70.4126 H         1 UNK         0.0836 
    111 H111      -77.7755   25.7596  -69.5877 H         1 UNK         0.0836 
    112 H112      -77.5364   24.2946  -74.4581 H         1 UNK         0.3022 
    113 H113      -75.8606   22.0607  -76.6340 H         1 UNK         0.0747 
    114 H114      -75.5165   21.0548  -74.3649 H         1 UNK         0.0793 
    115 H115      -77.1278   21.5700  -73.8814 H         1 UNK         0.0793 
    116 H116      -76.9261   20.3720  -75.1592 H         1 UNK         0.0793 
    117 H117      -78.5882   22.2355  -75.8005 H         1 UNK         0.3047 
    118 H118      -79.6695   24.7170  -78.1247 H         1 UNK         0.0822 
    119 H119      -81.2923   22.8990  -78.5765 H         1 UNK         0.0807 
    120 H120      -80.2392   21.7259  -77.7888 H         1 UNK         0.0807 
    121 H121      -79.7203   22.5247  -79.2632 H         1 UNK         0.0807 
    122 H122      -80.7783   25.0634  -76.2641 H         1 UNK         0.2946 
    123 H123      -82.5136   23.9359  -74.3859 H         1 UNK         0.1144 
    124 H124      -80.2780   23.1512  -72.4297 H         1 UNK         0.0793 
    125 H125      -81.6394   22.1365  -72.8916 H         1 UNK         0.0793 
    126 H126      -81.9192   23.6011  -71.9718 H         1 UNK         0.0793 
    127 H127      -80.1239   25.6026  -74.1523 H         1 UNK         0.2896 
@<TRIPOS>BOND
     1    1    2 1    
     2    1   67 1    
     3    1   68 1    
     4    1   69 1    
     5    2    3 2    
     6    2    4 am   BACKBONE|DICT|INTERRES
     7    4    5 1    
     8    4   70 1    
     9    5    6 1    
    10    5   65 1    
    11    5   71 1    
    12    6    7 1    
    13    6   72 1    
    14    6   73 1    
    15    7    8 1    
    16    8    9 1    
    17    8   74 1    
    18    8   75 1    
    19    9   10 ar   
    20    9   14 ar   
    21   10   11 ar   
    22   10   76 1    
    23   11   12 ar   
    24   11   48 1    
    25   12   13 ar   
    26   12   77 1    
    27   13   14 ar   
    28   13   15 1    
    29   14   78 1    
    30   15   16 1    
    31   15   79 1    
    32   15   80 1    
    33   16   17 1    
    34   17   18 1    
    35   17   81 1    
    36   17   82 1    
    37   18   19 1    
    38   18   22 1    
    39   18   83 1    
    40   19   20 am   BACKBONE|DICT|INTERRES
    41   19   21 2    
    42   20   84 1    
    43   20   85 1    
    44   22   23 am   BACKBONE|DICT|INTERRES
    45   22   86 1    
    46   23   24 2    
    47   23   25 1    
    48   25   26 1    
    49   25   27 1    
    50   25   87 1    
    51   26   88 1    
    52   26   89 1    
    53   26   90 1    
    54   27   28 am   BACKBONE|DICT|INTERRES
    55   27   91 1    
    56   28   29 2    
    57   28   30 1    
    58   30   31 1    
    59   30   32 1    
    60   30   92 1    
    61   31   93 1    
    62   31   94 1    
    63   31   95 1    
    64   32   33 am   BACKBONE|DICT|INTERRES
    65   32   96 1    
    66   33   34 2    
    67   33   35 1    
    68   35   36 1    
    69   35   37 1    
    70   35   97 1    
    71   36   98 1    
    72   36   99 1    
    73   36  100 1    
    74   37   38 am   BACKBONE|DICT|INTERRES
    75   37  101 1    
    76   38   39 2    
    77   38   40 1    
    78   40   41 1    
    79   40   42 1    
    80   40  102 1    
    81   41  103 1    
    82   41  104 1    
    83   41  105 1    
    84   42   43 am   BACKBONE|DICT|INTERRES
    85   42  106 1    
    86   43   44 2    
    87   43   45 1    
    88   45   46 1    
    89   45   49 1    
    90   45  107 1    
    91   46   47 1    
    92   46  108 1    
    93   46  109 1    
    94   47   48 1    
    95   48  110 1    
    96   48  111 1    
    97   49   50 am   BACKBONE|DICT|INTERRES
    98   49  112 1    
    99   50   51 2    
   100   50   52 1    
   101   52   53 1    
   102   52   54 1    
   103   52  113 1    
   104   53  114 1    
   105   53  115 1    
   106   53  116 1    
   107   54   55 am   BACKBONE|DICT|INTERRES
   108   54  117 1    
   109   55   56 2    
   110   55   57 1    
   111   57   58 1    
   112   57   59 1    
   113   57  118 1    
   114   58  119 1    
   115   58  120 1    
   116   58  121 1    
   117   59   60 am   BACKBONE|DICT|INTERRES
   118   59  122 1    
   119   60   61 2    
   120   60   62 1    
   121   62   63 1    
   122   62   64 1    
   123   62  123 1    
   124   63  124 1    
   125   63  125 1    
   126   63  126 1    
   127   64   65 am   BACKBONE|DICT|INTERRES
   128   64  127 1    
   129   65   66 2    
@<TRIPOS>SUBSTRUCTURE
     1 UNK         1 GROUP             0       ****    0 ROOT    
