@<TRIPOS>MOLECULE
3R135
127   129    1
SMALL
USER_CHARGES


@<TRIPOS>ATOM
      1 CA        -83.2383   27.9549  -70.1703 C.3       0 UNK        -0.1998 
      2 C         -82.7053   27.6679  -71.5655 C.2       0 UNK         0.4909 
      3 O         -81.5587   27.2455  -71.6960 O.2       0 UNK        -0.5240 
      4 N         -83.5419   27.8780  -72.5917 N.am      1 UNK        -0.4739 
      5 CA        -83.3201   27.7448  -74.0439 C.3       1 UNK         0.0864 
      6 C6        -82.4214   28.8653  -74.6506 C.3       11 UNK        -0.0881 
      7 S7        -80.6250   28.5387  -74.7025 S.3       11 UNK        -0.2682 
      8 C8        -79.9741   29.7339  -73.4999 C.3       11 UNK         0.0289 
      9 C9        -78.5546   29.3557  -73.1114 C.ar      11 UNK        -0.0687 
     10 C10       -78.3400   28.4837  -72.0420 C.ar      11 UNK        -0.0823 
     11 C11       -77.0481   28.0787  -71.7008 C.ar      11 UNK        -0.0830 
     12 C12       -75.9614   28.5646  -72.4334 C.ar      11 UNK        -0.1021 
     13 C13       -76.1615   29.4366  -73.5087 C.ar      11 UNK        -0.0753 
     14 C14       -77.4611   29.8371  -73.8374 C.ar      11 UNK        -0.0933 
     15 C15       -74.9845   29.8937  -74.3576 C.3       11 UNK         0.0166 
     16 S16       -74.3031   31.4849  -73.7933 S.3       11 UNK        -0.2615 
     17 C17       -73.2225   30.9587  -72.4184 C.3       11 UNK        -0.0865 
     18 CA        -71.7150   31.2189  -72.6821 C.3       10 UNK         0.0862 
     19 C         -70.8825   30.8450  -71.4189 C.2       10 UNK         0.5551 
     20 N         -70.0503   29.8111  -71.4503 N.am      10 UNK        -0.7319 
     21 O         -70.9985   31.5083  -70.3913 O.2       10 UNK        -0.5018 
     22 N         -71.2579   30.6042  -73.9428 N.am      10 UNK        -0.4509 
     23 C         -70.0865   30.8444  -74.5465 C.2       10 UNK         0.4899 
     24 O         -69.2517   31.6399  -74.1126 O.2       10 UNK        -0.4839 
     25 CA        -69.7931   30.0561  -75.8422 C.3       9 UNK         0.0222 
     26 CB        -68.3210   30.1708  -76.2825 C.3       9 UNK        -0.1966 
     27 N         -70.1439   28.6353  -75.7262 N.am      9 UNK        -0.4218 
     28 C         -71.3729   28.1324  -75.8928 C.2       9 UNK         0.5020 
     29 O         -72.3565   28.8262  -76.1551 O.2       9 UNK        -0.5274 
     30 CA        -71.5354   26.6251  -75.6441 C.3       8 UNK         0.0270 
     31 CB        -71.7095   26.3534  -74.1398 C.3       8 UNK        -0.1976 
     32 N         -72.6907   26.0904  -76.3687 N.am      8 UNK        -0.4313 
     33 C         -72.6867   25.7975  -77.6781 C.2       8 UNK         0.5041 
     34 O         -71.6817   25.8857  -78.3863 O.2       8 UNK        -0.5577 
     35 CA        -73.9978   25.3014  -78.3225 C.3       7 UNK         0.0284 
     36 CB        -73.9602   23.7755  -78.5085 C.3       7 UNK        -0.1958 
     37 N         -75.2028   25.6496  -77.5718 N.am      7 UNK        -0.4454 
     38 C         -75.6951   26.8855  -77.4174 C.2       7 UNK         0.5089 
     39 O         -75.2433   27.8799  -77.9847 O.2       7 UNK        -0.5125 
     40 CA        -76.8984   27.0383  -76.4670 C.3       6 UNK         0.0408 
     41 CB        -78.1950   27.0950  -77.2880 C.3       6 UNK        -0.1791 
     42 N         -77.0144   25.9860  -75.4464 N.am      6 UNK        -0.4762 
     43 C         -76.0712   25.6526  -74.5492 C.2       6 UNK         0.5007 
     44 O         -74.9597   26.1782  -74.5033 O.2       6 UNK        -0.5032 
     45 CA        -76.3834   24.4735  -73.6094 C.3       5 UNK         0.0783 
     46 C46       -77.1659   24.9027  -72.3427 C.3       11 UNK        -0.0857 
     47 S47       -76.0387   25.5507  -71.0590 S.3       11 UNK        -0.2512 
     48 C48       -76.8400   27.1061  -70.5478 C.3       11 UNK         0.0225 
     49 N         -77.0654   23.4077  -74.3459 N.am      5 UNK        -0.4615 
     50 C         -76.4309   22.4652  -75.0576 C.2       4 UNK         0.5053 
     51 O         -75.2061   22.3550  -75.1069 O.2       4 UNK        -0.5105 
     52 CA        -77.2995   21.4802  -75.8601 C.3       4 UNK         0.0263 
     53 CB        -77.6114   20.2318  -75.0193 C.3       4 UNK        -0.1981 
     54 N         -78.5523   22.0692  -76.3359 N.am      4 UNK        -0.4224 
     55 C         -78.6363   23.0408  -77.2557 C.2       3 UNK         0.4895 
     56 O         -77.6653   23.5092  -77.8502 O.2       3 UNK        -0.5091 
     57 CA        -80.0401   23.6103  -77.5317 C.3       3 UNK         0.0250 
     58 CB        -80.7144   22.8387  -78.6772 C.3       3 UNK        -0.1996 
     59 N         -80.9315   23.6287  -76.3639 N.am      3 UNK        -0.4254 
     60 C         -80.6772   24.2537  -75.2052 C.2       2 UNK         0.5004 
     61 O         -79.6160   24.8292  -74.9538 O.2       2 UNK        -0.5226 
     62 CA        -81.7702   24.1891  -74.1284 C.3       2 UNK         0.0269 
     63 CB        -81.2415   23.4978  -72.8602 C.3       2 UNK        -0.1926 
     64 N         -82.2334   25.5309  -73.7822 N.am      2 UNK        -0.4687 
     65 C         -82.9898   26.3185  -74.5555 C.2       1 UNK         0.5165 
     66 O         -83.4556   25.9486  -75.6352 O.2       1 UNK        -0.5079 
     67 H67       -82.6192   28.7068  -69.6817 H         1 UNK         0.0900 
     68 H68       -84.2644   28.3215  -70.1904 H         1 UNK         0.0900 
     69 H69       -83.2132   27.0483  -69.5663 H         1 UNK         0.0900 
     70 H70       -84.4773   28.1839  -72.3608 H         1 UNK         0.2959 
     71 H71       -84.3174   27.9329  -74.4461 H         1 UNK         0.1079 
     72 H72       -82.6083   29.8135  -74.1445 H         1 UNK         0.0837 
     73 H73       -82.7271   29.0339  -75.6847 H         1 UNK         0.0837 
     74 H74       -80.0021   30.7369  -73.9279 H         1 UNK         0.0685 
     75 H75       -80.6108   29.7518  -72.6142 H         1 UNK         0.0685 
     76 H76       -79.1867   28.1013  -71.4897 H         1 UNK         0.1434 
     77 H77       -74.9643   28.2267  -72.1891 H         1 UNK         0.1329 
     78 H78       -77.6238   30.4973  -74.6781 H         1 UNK         0.1335 
     79 H79       -75.2983   29.9966  -75.3976 H         1 UNK         0.0680 
     80 H80       -74.2065   29.1298  -74.3567 H         1 UNK         0.0680 
     81 H81       -73.3839   29.9031  -72.1996 H         1 UNK         0.1032 
     82 H82       -73.5497   31.4982  -71.5273 H         1 UNK         0.1032 
     83 H83       -71.5919   32.2965  -72.8069 H         1 UNK         0.0461 
     84 H84       -69.9418   29.2701  -72.2920 H         1 UNK         0.3453 
     85 H85       -69.5159   29.5813  -70.6274 H         1 UNK         0.3453 
     86 H86       -71.9071   29.9790  -74.4044 H         1 UNK         0.2984 
     87 H87       -70.4033   30.5064  -76.6280 H         1 UNK         0.0554 
     88 H88       -68.0422   31.2116  -76.4534 H         1 UNK         0.0847 
     89 H89       -68.1422   29.6359  -77.2155 H         1 UNK         0.0847 
     90 H90       -67.6409   29.7707  -75.5295 H         1 UNK         0.0847 
     91 H91       -69.3949   28.0081  -75.4679 H         1 UNK         0.3141 
     92 H92       -70.6361   26.1098  -75.9888 H         1 UNK         0.0743 
     93 H93       -72.5441   26.9170  -73.7205 H         1 UNK         0.0784 
     94 H94       -71.8896   25.2960  -73.9443 H         1 UNK         0.0784 
     95 H95       -70.8159   26.6377  -73.5831 H         1 UNK         0.0784 
     96 H96       -73.5680   26.0645  -75.8548 H         1 UNK         0.3213 
     97 H97       -74.0717   25.7666  -79.3077 H         1 UNK         0.0855 
     98 H98       -73.8960   23.2550  -77.5518 H         1 UNK         0.0814 
     99 H99       -73.0962   23.4749  -79.1027 H         1 UNK         0.0814 
    100 H100      -74.8502   23.4161  -79.0259 H         1 UNK         0.0814 
    101 H101      -75.6891   24.8935  -77.1089 H         1 UNK         0.3105 
    102 H102      -76.7859   27.9839  -75.9370 H         1 UNK         0.0547 
    103 H103      -78.2689   26.2517  -77.9739 H         1 UNK         0.0837 
    104 H104      -78.2318   28.0040  -77.8894 H         1 UNK         0.0837 
    105 H105      -79.0790   27.0880  -76.6526 H         1 UNK         0.0837 
    106 H106      -77.9187   25.5233  -75.3792 H         1 UNK         0.3020 
    107 H107      -75.4193   24.0767  -73.2806 H         1 UNK         0.1245 
    108 H108      -77.6712   24.0403  -71.9052 H         1 UNK         0.0781 
    109 H109      -77.9568   25.6166  -72.5811 H         1 UNK         0.0781 
    110 H110      -76.2229   27.5866  -69.7875 H         1 UNK         0.0836 
    111 H111      -77.7884   26.8662  -70.0642 H         1 UNK         0.0836 
    112 H112      -78.0720   23.4908  -74.4185 H         1 UNK         0.3022 
    113 H113      -76.7217   21.1696  -76.7335 H         1 UNK         0.0747 
    114 H114      -78.1579   19.4882  -75.5998 H         1 UNK         0.0793 
    115 H115      -76.6927   19.7569  -74.6717 H         1 UNK         0.0793 
    116 H116      -78.2059   20.4751  -74.1377 H         1 UNK         0.0793 
    117 H117      -79.4057   21.7410  -75.9081 H         1 UNK         0.3047 
    118 H118      -79.9151   24.6451  -77.8524 H         1 UNK         0.0822 
    119 H119      -81.6622   23.2965  -78.9611 H         1 UNK         0.0807 
    120 H120      -80.9093   21.8002  -78.4066 H         1 UNK         0.0807 
    121 H121      -80.0828   22.8306  -79.5670 H         1 UNK         0.0807 
    122 H122      -81.8301   23.1829  -76.4837 H         1 UNK         0.2946 
    123 H123      -82.6197   23.6158  -74.5061 H         1 UNK         0.1144 
    124 H124      -80.8816   22.4923  -73.0817 H         1 UNK         0.0793 
    125 H125      -82.0231   23.4040  -72.1062 H         1 UNK         0.0793 
    126 H126      -80.4138   24.0517  -72.4143 H         1 UNK         0.0793 
    127 H127      -81.8374   25.9617  -72.9487 H         1 UNK         0.2896 
@<TRIPOS>BOND
     1    1    2 1    
     2    1   67 1    
     3    1   68 1    
     4    1   69 1    
     5    2    3 2    
     6    2    4 am   BACKBONE|DICT|INTERRES
     7    4    5 1    
     8    4   70 1    
     9    5    6 1    
    10    5   65 1    
    11    5   71 1    
    12    6    7 1    
    13    6   72 1    
    14    6   73 1    
    15    7    8 1    
    16    8    9 1    
    17    8   74 1    
    18    8   75 1    
    19    9   10 ar   
    20    9   14 ar   
    21   10   11 ar   
    22   10   76 1    
    23   11   12 ar   
    24   11   48 1    
    25   12   13 ar   
    26   12   77 1    
    27   13   14 ar   
    28   13   15 1    
    29   14   78 1    
    30   15   16 1    
    31   15   79 1    
    32   15   80 1    
    33   16   17 1    
    34   17   18 1    
    35   17   81 1    
    36   17   82 1    
    37   18   19 1    
    38   18   22 1    
    39   18   83 1    
    40   19   20 am   BACKBONE|DICT|INTERRES
    41   19   21 2    
    42   20   84 1    
    43   20   85 1    
    44   22   23 am   BACKBONE|DICT|INTERRES
    45   22   86 1    
    46   23   24 2    
    47   23   25 1    
    48   25   26 1    
    49   25   27 1    
    50   25   87 1    
    51   26   88 1    
    52   26   89 1    
    53   26   90 1    
    54   27   28 am   BACKBONE|DICT|INTERRES
    55   27   91 1    
    56   28   29 2    
    57   28   30 1    
    58   30   31 1    
    59   30   32 1    
    60   30   92 1    
    61   31   93 1    
    62   31   94 1    
    63   31   95 1    
    64   32   33 am   BACKBONE|DICT|INTERRES
    65   32   96 1    
    66   33   34 2    
    67   33   35 1    
    68   35   36 1    
    69   35   37 1    
    70   35   97 1    
    71   36   98 1    
    72   36   99 1    
    73   36  100 1    
    74   37   38 am   BACKBONE|DICT|INTERRES
    75   37  101 1    
    76   38   39 2    
    77   38   40 1    
    78   40   41 1    
    79   40   42 1    
    80   40  102 1    
    81   41  103 1    
    82   41  104 1    
    83   41  105 1    
    84   42   43 am   BACKBONE|DICT|INTERRES
    85   42  106 1    
    86   43   44 2    
    87   43   45 1    
    88   45   46 1    
    89   45   49 1    
    90   45  107 1    
    91   46   47 1    
    92   46  108 1    
    93   46  109 1    
    94   47   48 1    
    95   48  110 1    
    96   48  111 1    
    97   49   50 am   BACKBONE|DICT|INTERRES
    98   49  112 1    
    99   50   51 2    
   100   50   52 1    
   101   52   53 1    
   102   52   54 1    
   103   52  113 1    
   104   53  114 1    
   105   53  115 1    
   106   53  116 1    
   107   54   55 am   BACKBONE|DICT|INTERRES
   108   54  117 1    
   109   55   56 2    
   110   55   57 1    
   111   57   58 1    
   112   57   59 1    
   113   57  118 1    
   114   58  119 1    
   115   58  120 1    
   116   58  121 1    
   117   59   60 am   BACKBONE|DICT|INTERRES
   118   59  122 1    
   119   60   61 2    
   120   60   62 1    
   121   62   63 1    
   122   62   64 1    
   123   62  123 1    
   124   63  124 1    
   125   63  125 1    
   126   63  126 1    
   127   64   65 am   BACKBONE|DICT|INTERRES
   128   64  127 1    
   129   65   66 2    
@<TRIPOS>SUBSTRUCTURE
     1 UNK         1 GROUP             0       ****    0 ROOT    
