@<TRIPOS>MOLECULE
3R135
127   129    1
SMALL
USER_CHARGES


@<TRIPOS>ATOM
      1 CA        -82.8434   26.7262  -73.8996 C.3       0 UNK        -0.1998 
      2 C         -81.8720   26.8765  -75.0598 C.2       0 UNK         0.4909 
      3 O         -82.2204   26.5370  -76.1908 O.2       0 UNK        -0.5240 
      4 N         -80.6587   27.3755  -74.7815 N.am      1 UNK        -0.4739 
      5 CA        -79.5571   27.6052  -75.7261 C.3       1 UNK         0.0864 
      6 C6        -78.3041   28.1666  -75.0080 C.3       11 UNK        -0.0881 
      7 S7        -78.5691   29.8327  -74.3134 S.3       11 UNK        -0.2682 
      8 C8        -78.7028   29.5189  -72.5222 C.3       11 UNK         0.0289 
      9 C9        -77.4726   28.8321  -71.9420 C.ar      11 UNK        -0.0687 
     10 C10       -77.5756   27.5428  -71.4120 C.ar      11 UNK        -0.0823 
     11 C11       -76.4589   26.9044  -70.8647 C.ar      11 UNK        -0.0830 
     12 C12       -75.2345   27.5804  -70.8255 C.ar      11 UNK        -0.1021 
     13 C13       -75.1142   28.8643  -71.3648 C.ar      11 UNK        -0.0753 
     14 C14       -76.2364   29.4847  -71.9230 C.ar      11 UNK        -0.0933 
     15 C15       -73.7655   29.5657  -71.3780 C.3       11 UNK         0.0166 
     16 S16       -73.7372   31.0021  -70.2615 S.3       11 UNK        -0.2615 
     17 C17       -71.9745   31.4777  -70.3269 C.3       11 UNK        -0.0865 
     18 CA        -71.6954   32.6924  -71.2635 C.3       10 UNK         0.0862 
     19 C         -70.2655   33.2873  -71.0655 C.2       10 UNK         0.5551 
     20 N         -69.6295   33.8331  -72.0952 N.am      10 UNK        -0.7319 
     21 O         -69.7347   33.2872  -69.9572 O.2       10 UNK        -0.5018 
     22 N         -72.0673   32.4386  -72.6701 N.am      10 UNK        -0.4509 
     23 C         -71.5219   31.5152  -73.4719 C.2       10 UNK         0.4899 
     24 O         -70.6091   30.7556  -73.1395 O.2       10 UNK        -0.4839 
     25 CA        -72.0867   31.4311  -74.8949 C.3       9 UNK         0.0222 
     26 CB        -71.1934   32.2109  -75.8738 C.3       9 UNK        -0.1966 
     27 N         -72.1336   30.0261  -75.2983 N.am      9 UNK        -0.4218 
     28 C         -73.2460   29.2874  -75.3694 C.2       9 UNK         0.5020 
     29 O         -74.3838   29.7299  -75.1932 O.2       9 UNK        -0.5274 
     30 CA        -73.0434   27.7844  -75.6308 C.3       8 UNK         0.0270 
     31 CB        -72.8603   27.0371  -74.2993 C.3       8 UNK        -0.1976 
     32 N         -74.1790   27.2047  -76.3497 N.am      8 UNK        -0.4313 
     33 C         -74.4821   27.4605  -77.6289 C.2       8 UNK         0.5041 
     34 O         -73.7645   28.1221  -78.3826 O.2       8 UNK        -0.5577 
     35 CA        -75.8217   26.8925  -78.1348 C.3       7 UNK         0.0284 
     36 CB        -75.9853   26.9782  -79.6683 C.3       7 UNK        -0.1958 
     37 N         -76.0965   25.5355  -77.6440 N.am      7 UNK        -0.4454 
     38 C         -75.4329   24.4112  -77.9499 C.2       7 UNK         0.5089 
     39 O         -74.4319   24.3646  -78.6663 O.2       7 UNK        -0.5125 
     40 CA        -76.0248   23.1215  -77.3522 C.3       6 UNK         0.0408 
     41 CB        -75.1860   21.8623  -77.6595 C.3       6 UNK        -0.1791 
     42 N         -76.2975   23.2478  -75.9157 N.am      6 UNK        -0.4762 
     43 C         -75.4020   23.4213  -74.9318 C.2       6 UNK         0.5007 
     44 O         -74.1904   23.5037  -75.1358 O.2       6 UNK        -0.5032 
     45 CA        -75.9293   23.5173  -73.4784 C.3       5 UNK         0.0783 
     46 C46       -75.1645   24.5923  -72.6633 C.3       11 UNK        -0.0857 
     47 S47       -75.2815   24.3379  -70.8583 S.3       11 UNK        -0.2512 
     48 C48       -76.5950   25.4864  -70.3191 C.3       11 UNK         0.0225 
     49 N         -77.3813   23.7344  -73.4047 N.am      5 UNK        -0.4615 
     50 C         -78.3217   22.7863  -73.4975 C.2       4 UNK         0.5053 
     51 O         -78.0717   21.6000  -73.7075 O.2       4 UNK        -0.5105 
     52 CA        -79.7849   23.2299  -73.3486 C.3       4 UNK         0.0263 
     53 CB        -79.9616   24.5703  -72.6075 C.3       4 UNK        -0.1981 
     54 N         -80.3944   23.3377  -74.6729 N.am      4 UNK        -0.4224 
     55 C         -81.3675   22.5412  -75.1392 C.2       3 UNK         0.4895 
     56 O         -81.8342   21.5937  -74.5051 O.2       3 UNK        -0.5091 
     57 CA        -81.9559   22.8527  -76.5296 C.3       3 UNK         0.0250 
     58 CB        -83.4439   23.2276  -76.4152 C.3       3 UNK        -0.1996 
     59 N         -81.2547   23.9331  -77.2266 N.am      3 UNK        -0.4254 
     60 C         -80.1917   23.7602  -78.0239 C.2       2 UNK         0.5004 
     61 O         -79.7035   22.6620  -78.2875 O.2       2 UNK        -0.5226 
     62 CA        -79.5405   25.0287  -78.6054 C.3       2 UNK         0.0269 
     63 CB        -80.1205   25.3425  -79.9933 C.3       2 UNK        -0.1926 
     64 N         -79.6772   26.2111  -77.7468 N.am      2 UNK        -0.4687 
     65 C         -79.1986   26.3210  -76.5003 C.2       1 UNK         0.5165 
     66 O         -78.5219   25.4454  -75.9536 O.2       1 UNK        -0.5079 
     67 H67       -83.7554   27.2874  -74.1006 H         1 UNK         0.0900 
     68 H68       -83.1106   25.6780  -73.7687 H         1 UNK         0.0900 
     69 H69       -82.4215   27.0893  -72.9627 H         1 UNK         0.0900 
     70 H70       -80.4593   27.6498  -73.8320 H         1 UNK         0.2959 
     71 H71       -79.8967   28.3510  -76.4481 H         1 UNK         0.1079 
     72 H72       -77.4695   28.2594  -75.7036 H         1 UNK         0.0837 
     73 H73       -77.9622   27.4794  -74.2335 H         1 UNK         0.0837 
     74 H74       -79.6033   28.9348  -72.3291 H         1 UNK         0.0685 
     75 H75       -78.8466   30.4723  -72.0120 H         1 UNK         0.0685 
     76 H76       -78.5302   27.0357  -71.4247 H         1 UNK         0.1434 
     77 H77       -74.3688   27.0939  -70.3971 H         1 UNK         0.1329 
     78 H78       -76.1459   30.4760  -72.3460 H         1 UNK         0.1335 
     79 H79       -72.9694   28.8728  -71.1013 H         1 UNK         0.0680 
     80 H80       -73.5552   29.8911  -72.3952 H         1 UNK         0.0680 
     81 H81       -71.6870   31.7184  -69.3019 H         1 UNK         0.1032 
     82 H82       -71.3606   30.6200  -70.6052 H         1 UNK         0.1032 
     83 H83       -72.3580   33.4958  -70.9397 H         1 UNK         0.0461 
     84 H84       -68.7114   34.2256  -71.9579 H         1 UNK         0.3453 
     85 H85       -70.0571   33.8521  -73.0067 H         1 UNK         0.3453 
     86 H86       -72.8008   33.0290  -73.0359 H         1 UNK         0.2984 
     87 H87       -73.0863   31.8707  -74.9119 H         1 UNK         0.0554 
     88 H88       -71.1552   33.2689  -75.6111 H         1 UNK         0.0847 
     89 H89       -71.5739   32.1455  -76.8934 H         1 UNK         0.0847 
     90 H90       -70.1683   31.8376  -75.8751 H         1 UNK         0.0847 
     91 H91       -71.2374   29.5648  -75.3759 H         1 UNK         0.3141 
     92 H92       -72.1474   27.6461  -76.2400 H         1 UNK         0.0743 
     93 H93       -71.9889   27.4082  -73.7581 H         1 UNK         0.0784 
     94 H94       -72.7099   25.9692  -74.4604 H         1 UNK         0.0784 
     95 H95       -73.7240   27.1638  -73.6453 H         1 UNK         0.0784 
     96 H96       -74.8270   26.6582  -75.8043 H         1 UNK         0.3213 
     97 H97       -76.5910   27.5337  -77.7065 H         1 UNK         0.0855 
     98 H98       -75.2120   26.4164  -80.1928 H         1 UNK         0.0814 
     99 H99       -75.9189   28.0119  -80.0095 H         1 UNK         0.0814 
    100 H100      -76.9546   26.5959  -79.9874 H         1 UNK         0.0814 
    101 H101      -76.8842   25.4435  -77.0081 H         1 UNK         0.3105 
    102 H102      -76.9942   22.9824  -77.8311 H         1 UNK         0.0547 
    103 H103      -75.6432   20.9682  -77.2362 H         1 UNK         0.0837 
    104 H104      -74.1716   21.9393  -77.2677 H         1 UNK         0.0837 
    105 H105      -75.1037   21.7048  -78.7355 H         1 UNK         0.0837 
    106 H106      -77.2727   23.2278  -75.6507 H         1 UNK         0.3020 
    107 H107      -75.7066   22.5435  -73.0356 H         1 UNK         0.1245 
    108 H108      -75.4918   25.5927  -72.9459 H         1 UNK         0.0781 
    109 H109      -74.0949   24.5652  -72.8767 H         1 UNK         0.0781 
    110 H110      -76.5917   25.5311  -69.2293 H         1 UNK         0.0836 
    111 H111      -77.5543   25.0545  -70.6000 H         1 UNK         0.0836 
    112 H112      -77.6774   24.6906  -73.2825 H         1 UNK         0.3022 
    113 H113      -80.2836   22.4611  -72.7547 H         1 UNK         0.0747 
    114 H114      -81.0183   24.8057  -72.4845 H         1 UNK         0.0793 
    115 H115      -79.5366   24.5197  -71.6057 H         1 UNK         0.0793 
    116 H116      -79.4977   25.4034  -73.1347 H         1 UNK         0.0793 
    117 H117      -80.0133   24.0503  -75.2829 H         1 UNK         0.3047 
    118 H118      -81.8856   21.9365  -77.1201 H         1 UNK         0.0822 
    119 H119      -83.8832   23.4091  -77.3962 H         1 UNK         0.0807 
    120 H120      -83.5903   24.1242  -75.8122 H         1 UNK         0.0807 
    121 H121      -84.0173   22.4248  -75.9497 H         1 UNK         0.0807 
    122 H122      -81.5853   24.8783  -77.0467 H         1 UNK         0.2946 
    123 H123      -78.4787   24.8163  -78.7283 H         1 UNK         0.1144 
    124 H124      -79.6058   26.1835  -80.4584 H         1 UNK         0.0793 
    125 H125      -81.1829   25.5846  -79.9417 H         1 UNK         0.0793 
    126 H126      -80.0127   24.4886  -80.6638 H         1 UNK         0.0793 
    127 H127      -80.2650   26.9527  -78.1020 H         1 UNK         0.2896 
@<TRIPOS>BOND
     1    1    2 1    
     2    1   67 1    
     3    1   68 1    
     4    1   69 1    
     5    2    3 2    
     6    2    4 am   BACKBONE|DICT|INTERRES
     7    4    5 1    
     8    4   70 1    
     9    5    6 1    
    10    5   65 1    
    11    5   71 1    
    12    6    7 1    
    13    6   72 1    
    14    6   73 1    
    15    7    8 1    
    16    8    9 1    
    17    8   74 1    
    18    8   75 1    
    19    9   10 ar   
    20    9   14 ar   
    21   10   11 ar   
    22   10   76 1    
    23   11   12 ar   
    24   11   48 1    
    25   12   13 ar   
    26   12   77 1    
    27   13   14 ar   
    28   13   15 1    
    29   14   78 1    
    30   15   16 1    
    31   15   79 1    
    32   15   80 1    
    33   16   17 1    
    34   17   18 1    
    35   17   81 1    
    36   17   82 1    
    37   18   19 1    
    38   18   22 1    
    39   18   83 1    
    40   19   20 am   BACKBONE|DICT|INTERRES
    41   19   21 2    
    42   20   84 1    
    43   20   85 1    
    44   22   23 am   BACKBONE|DICT|INTERRES
    45   22   86 1    
    46   23   24 2    
    47   23   25 1    
    48   25   26 1    
    49   25   27 1    
    50   25   87 1    
    51   26   88 1    
    52   26   89 1    
    53   26   90 1    
    54   27   28 am   BACKBONE|DICT|INTERRES
    55   27   91 1    
    56   28   29 2    
    57   28   30 1    
    58   30   31 1    
    59   30   32 1    
    60   30   92 1    
    61   31   93 1    
    62   31   94 1    
    63   31   95 1    
    64   32   33 am   BACKBONE|DICT|INTERRES
    65   32   96 1    
    66   33   34 2    
    67   33   35 1    
    68   35   36 1    
    69   35   37 1    
    70   35   97 1    
    71   36   98 1    
    72   36   99 1    
    73   36  100 1    
    74   37   38 am   BACKBONE|DICT|INTERRES
    75   37  101 1    
    76   38   39 2    
    77   38   40 1    
    78   40   41 1    
    79   40   42 1    
    80   40  102 1    
    81   41  103 1    
    82   41  104 1    
    83   41  105 1    
    84   42   43 am   BACKBONE|DICT|INTERRES
    85   42  106 1    
    86   43   44 2    
    87   43   45 1    
    88   45   46 1    
    89   45   49 1    
    90   45  107 1    
    91   46   47 1    
    92   46  108 1    
    93   46  109 1    
    94   47   48 1    
    95   48  110 1    
    96   48  111 1    
    97   49   50 am   BACKBONE|DICT|INTERRES
    98   49  112 1    
    99   50   51 2    
   100   50   52 1    
   101   52   53 1    
   102   52   54 1    
   103   52  113 1    
   104   53  114 1    
   105   53  115 1    
   106   53  116 1    
   107   54   55 am   BACKBONE|DICT|INTERRES
   108   54  117 1    
   109   55   56 2    
   110   55   57 1    
   111   57   58 1    
   112   57   59 1    
   113   57  118 1    
   114   58  119 1    
   115   58  120 1    
   116   58  121 1    
   117   59   60 am   BACKBONE|DICT|INTERRES
   118   59  122 1    
   119   60   61 2    
   120   60   62 1    
   121   62   63 1    
   122   62   64 1    
   123   62  123 1    
   124   63  124 1    
   125   63  125 1    
   126   63  126 1    
   127   64   65 am   BACKBONE|DICT|INTERRES
   128   64  127 1    
   129   65   66 2    
@<TRIPOS>SUBSTRUCTURE
     1 UNK         1 GROUP             0       ****    0 ROOT    
