@<TRIPOS>MOLECULE
3R135
127   129    1
SMALL
USER_CHARGES


@<TRIPOS>ATOM
      1 CA        -77.6965   25.1092  -70.0925 C.3       0 UNK        -0.1998 
      2 C         -79.1255   24.8755  -70.5603 C.2       0 UNK         0.4909 
      3 O         -79.6938   23.8159  -70.2928 O.2       0 UNK        -0.5240 
      4 N         -79.7167   25.8574  -71.2523 N.am      1 UNK        -0.4739 
      5 CA        -81.1247   25.8742  -71.6709 C.3       1 UNK         0.0864 
      6 C6        -81.6605   27.3223  -71.8112 C.3       11 UNK        -0.0881 
      7 S7        -81.5617   28.2242  -70.2265 S.3       11 UNK        -0.2682 
      8 C8        -81.3578   29.9502  -70.7743 C.3       11 UNK         0.0289 
      9 C9        -80.0657   30.1984  -71.5458 C.ar      11 UNK        -0.0687 
     10 C10       -80.1121   30.8342  -72.7907 C.ar      11 UNK        -0.0823 
     11 C11       -78.9392   31.1078  -73.5014 C.ar      11 UNK        -0.0830 
     12 C12       -77.7079   30.7444  -72.9451 C.ar      11 UNK        -0.1021 
     13 C13       -77.6473   30.0841  -71.7153 C.ar      11 UNK        -0.0753 
     14 C14       -78.8274   29.8232  -71.0134 C.ar      11 UNK        -0.0933 
     15 C15       -76.3021   29.6421  -71.1652 C.3       11 UNK         0.0166 
     16 S16       -75.6783   28.2193  -72.1065 S.3       11 UNK        -0.2615 
     17 C17       -74.0230   28.0021  -71.3776 C.3       11 UNK        -0.0865 
     18 CA        -72.9316   28.8888  -72.0366 C.3       10 UNK         0.0862 
     19 C         -71.5580   28.6594  -71.3359 C.2       10 UNK         0.5551 
     20 N         -70.5420   28.1199  -72.0009 N.am      10 UNK        -0.7319 
     21 O         -71.4145   28.9806  -70.1589 O.2       10 UNK        -0.5018 
     22 N         -72.9077   28.7463  -73.5016 N.am      10 UNK        -0.4509 
     23 C         -72.2585   29.5631  -74.3434 C.2       10 UNK         0.4899 
     24 O         -71.7128   30.6107  -73.9934 O.2       10 UNK        -0.4839 
     25 CA        -72.1930   29.1192  -75.8199 C.3       9 UNK         0.0222 
     26 CB        -70.9943   29.7272  -76.5779 C.3       9 UNK        -0.1966 
     27 N         -72.2278   27.6590  -75.9788 N.am      9 UNK        -0.4218 
     28 C         -71.3623   26.7653  -75.4742 C.2       9 UNK         0.5020 
     29 O         -70.3406   27.0755  -74.8596 O.2       9 UNK        -0.5274 
     30 CA        -71.7146   25.2758  -75.6134 C.3       8 UNK         0.0270 
     31 CB        -72.1628   24.7140  -74.2516 C.3       8 UNK        -0.1976 
     32 N         -72.7774   25.0282  -76.5947 N.am      8 UNK        -0.4313 
     33 C         -72.6357   24.2809  -77.6966 C.2       8 UNK         0.5041 
     34 O         -71.5753   23.7537  -78.0369 O.2       8 UNK        -0.5577 
     35 CA        -73.8849   24.0541  -78.5645 C.3       7 UNK         0.0284 
     36 CB        -74.6878   22.8461  -78.0543 C.3       7 UNK        -0.1958 
     37 N         -74.7693   25.2169  -78.6722 N.am      7 UNK        -0.4454 
     38 C         -74.4877   26.3109  -79.3951 C.2       7 UNK         0.5089 
     39 O         -73.4023   26.5130  -79.9395 O.2       7 UNK        -0.5125 
     40 CA        -75.6140   27.3414  -79.5637 C.3       6 UNK         0.0408 
     41 CB        -76.6461   26.8458  -80.5903 C.3       6 UNK        -0.1791 
     42 N         -76.2849   27.6043  -78.2926 N.am      6 UNK        -0.4762 
     43 C         -76.0235   28.6505  -77.4954 C.2       6 UNK         0.5007 
     44 O         -75.2320   29.5475  -77.7847 O.2       6 UNK        -0.5032 
     45 CA        -76.7502   28.6874  -76.1305 C.3       5 UNK         0.0783 
     46 C46       -78.0694   29.4993  -76.2227 C.3       11 UNK        -0.0857 
     47 S47       -77.7767   31.2958  -76.0803 S.3       11 UNK        -0.2512 
     48 C48       -79.0343   31.8085  -74.8567 C.3       11 UNK         0.0225 
     49 N         -76.9868   27.3480  -75.5813 N.am      5 UNK        -0.4615 
     50 C         -76.0368   26.4434  -75.3067 C.2       4 UNK         0.5053 
     51 O         -74.8319   26.6517  -75.4373 O.2       4 UNK        -0.5105 
     52 CA        -76.5015   25.0436  -74.8792 C.3       4 UNK         0.0263 
     53 CB        -76.5144   24.9276  -73.3514 C.3       4 UNK        -0.1981 
     54 N         -77.8164   24.6646  -75.4018 N.am      4 UNK        -0.4224 
     55 C         -78.1600   24.5845  -76.6952 C.2       3 UNK         0.4895 
     56 O         -77.3961   24.8839  -77.6157 O.2       3 UNK        -0.5091 
     57 CA        -79.6026   24.1543  -77.0260 C.3       3 UNK         0.0250 
     58 CB        -79.6280   23.0300  -78.0819 C.3       3 UNK        -0.1996 
     59 N         -80.4326   23.8140  -75.8573 N.am      3 UNK        -0.4254 
     60 C         -80.3044   22.7770  -75.0164 C.2       2 UNK         0.5004 
     61 O         -79.4056   21.9382  -75.0899 O.2       2 UNK        -0.5226 
     62 CA        -81.3330   22.7030  -73.8726 C.3       2 UNK         0.0269 
     63 CB        -81.3614   21.3176  -73.2001 C.3       2 UNK        -0.1926 
     64 N         -81.0907   23.7171  -72.8420 N.am      2 UNK        -0.4687 
     65 C         -81.3611   25.0250  -72.9399 C.2       1 UNK         0.5165 
     66 O         -81.7824   25.5497  -73.9732 O.2       1 UNK        -0.5079 
     67 H67       -77.6537   25.0896  -69.0039 H         1 UNK         0.0900 
     68 H68       -77.0415   24.3254  -70.4709 H         1 UNK         0.0900 
     69 H69       -77.3085   26.0712  -70.4272 H         1 UNK         0.0900 
     70 H70       -79.2026   26.7045  -71.4481 H         1 UNK         0.2959 
     71 H71       -81.7155   25.3970  -70.8850 H         1 UNK         0.1079 
     72 H72       -81.1065   27.8591  -72.5832 H         1 UNK         0.0837 
     73 H73       -82.7054   27.3204  -72.1277 H         1 UNK         0.0837 
     74 H74       -82.2283   30.2289  -71.3703 H         1 UNK         0.0685 
     75 H75       -81.3674   30.5975  -69.8965 H         1 UNK         0.0685 
     76 H76       -81.0674   31.1260  -73.2057 H         1 UNK         0.1434 
     77 H77       -76.7894   30.9509  -73.4766 H         1 UNK         0.1329 
     78 H78       -78.7855   29.3243  -70.0548 H         1 UNK         0.1335 
     79 H79       -76.3800   29.3756  -70.1100 H         1 UNK         0.0680 
     80 H80       -75.5917   30.4674  -71.2317 H         1 UNK         0.0680 
     81 H81       -74.0849   28.1986  -70.3053 H         1 UNK         0.1032 
     82 H82       -73.7569   26.9477  -71.4727 H         1 UNK         0.1032 
     83 H83       -73.1956   29.9281  -71.8326 H         1 UNK         0.0461 
     84 H84       -69.6640   27.9841  -71.5261 H         1 UNK         0.3453 
     85 H85       -70.6288   27.8587  -72.9763 H         1 UNK         0.3453 
     86 H86       -73.3674   27.9290  -73.8785 H         1 UNK         0.2984 
     87 H87       -73.1021   29.4985  -76.2844 H         1 UNK         0.0554 
     88 H88       -70.9786   29.4037  -77.6186 H         1 UNK         0.0847 
     89 H89       -70.0431   29.4471  -76.1242 H         1 UNK         0.0847 
     90 H90       -71.0443   30.8166  -76.5800 H         1 UNK         0.0847 
     91 H91       -73.0882   27.2955  -76.3685 H         1 UNK         0.3141 
     92 H92       -70.7947   24.7646  -75.9041 H         1 UNK         0.0743 
     93 H93       -73.0661   25.2044  -73.8872 H         1 UNK         0.0784 
     94 H94       -72.3646   23.6445  -74.3127 H         1 UNK         0.0784 
     95 H95       -71.3890   24.8537  -73.4953 H         1 UNK         0.0784 
     96 H96       -73.6833   25.4354  -76.3831 H         1 UNK         0.3213 
     97 H97       -73.5354   23.8138  -79.5713 H         1 UNK         0.0855 
     98 H98       -75.0827   23.0124  -77.0528 H         1 UNK         0.0814 
     99 H99       -74.0637   21.9524  -78.0134 H         1 UNK         0.0814 
    100 H100      -75.5292   22.6232  -78.7108 H         1 UNK         0.0814 
    101 H101      -75.7044   25.1161  -78.2820 H         1 UNK         0.3105 
    102 H102      -75.1727   28.2605  -79.9553 H         1 UNK         0.0547 
    103 H103      -77.4175   27.5953  -80.7671 H         1 UNK         0.0837 
    104 H104      -76.1720   26.6373  -81.5504 H         1 UNK         0.0837 
    105 H105      -77.1399   25.9294  -80.2643 H         1 UNK         0.0837 
    106 H106      -76.9134   26.8826  -77.9581 H         1 UNK         0.3020 
    107 H107      -76.0785   29.1828  -75.4249 H         1 UNK         0.1245 
    108 H108      -78.7477   29.1990  -75.4232 H         1 UNK         0.0781 
    109 H109      -78.6086   29.2946  -77.1500 H         1 UNK         0.0781 
    110 H110      -80.0190   31.6450  -75.2975 H         1 UNK         0.0836 
    111 H111      -78.9443   32.8836  -74.6965 H         1 UNK         0.0836 
    112 H112      -77.9494   27.0827  -75.4400 H         1 UNK         0.3022 
    113 H113      -75.7753   24.3277  -75.2657 H         1 UNK         0.0747 
    114 H114      -76.7779   23.9199  -73.0295 H         1 UNK         0.0793 
    115 H115      -75.5334   25.1559  -72.9321 H         1 UNK         0.0793 
    116 H116      -77.2274   25.6241  -72.9113 H         1 UNK         0.0793 
    117 H117      -78.5066   24.3788  -74.7236 H         1 UNK         0.3047 
    118 H118      -80.0722   25.0313  -77.4740 H         1 UNK         0.0822 
    119 H119      -79.1150   22.1329  -77.7344 H         1 UNK         0.0807 
    120 H120      -79.1337   23.3462  -79.0016 H         1 UNK         0.0807 
    121 H121      -80.6493   22.7538  -78.3439 H         1 UNK         0.0807 
    122 H122      -81.1520   24.4928  -75.6254 H         1 UNK         0.2946 
    123 H123      -82.3190   22.8779  -74.3100 H         1 UNK         0.1144 
    124 H124      -81.5407   20.5302  -73.9335 H         1 UNK         0.0793 
    125 H125      -80.4186   21.0907  -72.7005 H         1 UNK         0.0793 
    126 H126      -82.1569   21.2538  -72.4574 H         1 UNK         0.0793 
    127 H127      -80.6849   23.3960  -71.9674 H         1 UNK         0.2896 
@<TRIPOS>BOND
     1    1    2 1    
     2    1   67 1    
     3    1   68 1    
     4    1   69 1    
     5    2    3 2    
     6    2    4 am   BACKBONE|DICT|INTERRES
     7    4    5 1    
     8    4   70 1    
     9    5    6 1    
    10    5   65 1    
    11    5   71 1    
    12    6    7 1    
    13    6   72 1    
    14    6   73 1    
    15    7    8 1    
    16    8    9 1    
    17    8   74 1    
    18    8   75 1    
    19    9   10 ar   
    20    9   14 ar   
    21   10   11 ar   
    22   10   76 1    
    23   11   12 ar   
    24   11   48 1    
    25   12   13 ar   
    26   12   77 1    
    27   13   14 ar   
    28   13   15 1    
    29   14   78 1    
    30   15   16 1    
    31   15   79 1    
    32   15   80 1    
    33   16   17 1    
    34   17   18 1    
    35   17   81 1    
    36   17   82 1    
    37   18   19 1    
    38   18   22 1    
    39   18   83 1    
    40   19   20 am   BACKBONE|DICT|INTERRES
    41   19   21 2    
    42   20   84 1    
    43   20   85 1    
    44   22   23 am   BACKBONE|DICT|INTERRES
    45   22   86 1    
    46   23   24 2    
    47   23   25 1    
    48   25   26 1    
    49   25   27 1    
    50   25   87 1    
    51   26   88 1    
    52   26   89 1    
    53   26   90 1    
    54   27   28 am   BACKBONE|DICT|INTERRES
    55   27   91 1    
    56   28   29 2    
    57   28   30 1    
    58   30   31 1    
    59   30   32 1    
    60   30   92 1    
    61   31   93 1    
    62   31   94 1    
    63   31   95 1    
    64   32   33 am   BACKBONE|DICT|INTERRES
    65   32   96 1    
    66   33   34 2    
    67   33   35 1    
    68   35   36 1    
    69   35   37 1    
    70   35   97 1    
    71   36   98 1    
    72   36   99 1    
    73   36  100 1    
    74   37   38 am   BACKBONE|DICT|INTERRES
    75   37  101 1    
    76   38   39 2    
    77   38   40 1    
    78   40   41 1    
    79   40   42 1    
    80   40  102 1    
    81   41  103 1    
    82   41  104 1    
    83   41  105 1    
    84   42   43 am   BACKBONE|DICT|INTERRES
    85   42  106 1    
    86   43   44 2    
    87   43   45 1    
    88   45   46 1    
    89   45   49 1    
    90   45  107 1    
    91   46   47 1    
    92   46  108 1    
    93   46  109 1    
    94   47   48 1    
    95   48  110 1    
    96   48  111 1    
    97   49   50 am   BACKBONE|DICT|INTERRES
    98   49  112 1    
    99   50   51 2    
   100   50   52 1    
   101   52   53 1    
   102   52   54 1    
   103   52  113 1    
   104   53  114 1    
   105   53  115 1    
   106   53  116 1    
   107   54   55 am   BACKBONE|DICT|INTERRES
   108   54  117 1    
   109   55   56 2    
   110   55   57 1    
   111   57   58 1    
   112   57   59 1    
   113   57  118 1    
   114   58  119 1    
   115   58  120 1    
   116   58  121 1    
   117   59   60 am   BACKBONE|DICT|INTERRES
   118   59  122 1    
   119   60   61 2    
   120   60   62 1    
   121   62   63 1    
   122   62   64 1    
   123   62  123 1    
   124   63  124 1    
   125   63  125 1    
   126   63  126 1    
   127   64   65 am   BACKBONE|DICT|INTERRES
   128   64  127 1    
   129   65   66 2    
@<TRIPOS>SUBSTRUCTURE
     1 UNK         1 GROUP             0       ****    0 ROOT    
