@<TRIPOS>MOLECULE
3R135
127   129    1
SMALL
USER_CHARGES


@<TRIPOS>ATOM
      1 CA        -78.8897   25.0247  -69.8972 C.3       0 UNK        -0.1998 
      2 C         -79.9069   25.1110  -71.0240 C.2       0 UNK         0.4909 
      3 O         -80.3886   24.0803  -71.4963 O.2       0 UNK        -0.5240 
      4 N         -80.2470   26.3348  -71.4485 N.am      1 UNK        -0.4739 
      5 CA        -81.1944   26.6127  -72.5346 C.3       1 UNK         0.0864 
      6 C6        -81.6333   28.1043  -72.5910 C.3       11 UNK        -0.0881 
      7 S7        -81.9876   28.8436  -70.9532 S.3       11 UNK        -0.2682 
      8 C8        -80.9131   30.3243  -70.9254 C.3       11 UNK         0.0289 
      9 C9        -79.4718   30.0221  -71.3183 C.ar      11 UNK        -0.0687 
     10 C10       -78.9382   30.5616  -72.4940 C.ar      11 UNK        -0.0823 
     11 C11       -77.6451   30.2285  -72.9061 C.ar      11 UNK        -0.0830 
     12 C12       -76.8888   29.3450  -72.1300 C.ar      11 UNK        -0.1021 
     13 C13       -77.3853   28.8436  -70.9221 C.ar      11 UNK        -0.0753 
     14 C14       -78.6795   29.1907  -70.5211 C.ar      11 UNK        -0.0933 
     15 C15       -76.5438   27.9113  -70.0563 C.3       11 UNK         0.0166 
     16 S16       -75.0191   28.6968  -69.4322 S.3       11 UNK        -0.2615 
     17 C17       -73.8236   28.3310  -70.7642 C.3       11 UNK        -0.0865 
     18 CA        -73.3068   29.6139  -71.4918 C.3       10 UNK         0.0862 
     19 C         -71.9914   30.1930  -70.8896 C.2       10 UNK         0.5551 
     20 N         -71.8681   30.2203  -69.5696 N.am      10 UNK        -0.7319 
     21 O         -71.0998   30.6566  -71.5986 O.2       10 UNK        -0.5018 
     22 N         -73.2646   29.4520  -72.9547 N.am      10 UNK        -0.4509 
     23 C         -72.5876   28.5108  -73.6238 C.2       10 UNK         0.4899 
     24 O         -71.9104   27.6354  -73.0801 O.2       10 UNK        -0.4839 
     25 CA        -72.7607   28.5416  -75.1535 C.3       9 UNK         0.0222 
     26 CB        -72.1234   29.7942  -75.7920 C.3       9 UNK        -0.1966 
     27 N         -72.3173   27.2979  -75.7952 N.am      9 UNK        -0.4218 
     28 C         -71.0633   26.8666  -76.0026 C.2       9 UNK         0.5020 
     29 O         -70.0514   27.5323  -75.7749 O.2       9 UNK        -0.5274 
     30 CA        -70.8854   25.4352  -76.5451 C.3       8 UNK         0.0270 
     31 CB        -70.3862   24.5016  -75.4289 C.3       8 UNK        -0.1976 
     32 N         -72.0889   24.8490  -77.1422 N.am      8 UNK        -0.4313 
     33 C         -72.6289   25.2067  -78.3144 C.2       8 UNK         0.5041 
     34 O         -72.1923   26.1207  -79.0156 O.2       8 UNK        -0.5577 
     35 CA        -73.8461   24.4038  -78.8017 C.3       7 UNK         0.0284 
     36 CB        -74.1442   23.1372  -77.9719 C.3       7 UNK        -0.1958 
     37 N         -75.0227   25.2668  -78.7798 N.am      7 UNK        -0.4454 
     38 C         -75.6596   25.7438  -79.8567 C.2       7 UNK         0.5089 
     39 O         -75.3138   25.5069  -81.0153 O.2       7 UNK        -0.5125 
     40 CA        -76.9139   26.6087  -79.6203 C.3       6 UNK         0.0408 
     41 CB        -78.1511   25.9477  -80.2514 C.3       6 UNK        -0.1791 
     42 N         -77.1774   26.8642  -78.1993 N.am      6 UNK        -0.4762 
     43 C         -76.6380   27.8803  -77.5092 C.2       6 UNK         0.5007 
     44 O         -75.8874   28.7183  -78.0095 O.2       6 UNK        -0.5032 
     45 CA        -76.9454   27.9543  -76.0005 C.3       5 UNK         0.0783 
     46 C46       -78.2391   28.7504  -75.6953 C.3       11 UNK        -0.0857 
     47 S47       -78.0182   30.5580  -75.6863 S.3       11 UNK        -0.2512 
     48 C48       -77.0448   30.8457  -74.1666 C.3       11 UNK         0.0225 
     49 N         -76.9736   26.6484  -75.3413 N.am      5 UNK        -0.4615 
     50 C         -75.9494   25.7930  -75.2357 C.2       4 UNK         0.5053 
     51 O         -74.8672   25.9406  -75.8032 O.2       4 UNK        -0.5105 
     52 CA        -76.1755   24.5695  -74.3403 C.3       4 UNK         0.0263 
     53 CB        -76.1198   24.9791  -72.8595 C.3       4 UNK        -0.1981 
     54 N         -77.4719   23.9570  -74.6276 N.am      4 UNK        -0.4224 
     55 C         -77.6477   22.8789  -75.4034 C.2       3 UNK         0.4895 
     56 O         -76.7253   22.2155  -75.8771 O.2       3 UNK        -0.5091 
     57 CA        -79.0977   22.4621  -75.7170 C.3       3 UNK         0.0250 
     58 CB        -79.5682   21.3831  -74.7283 C.3       3 UNK        -0.1996 
     59 N         -80.0595   23.5685  -75.7116 N.am      3 UNK        -0.4254 
     60 C         -80.0189   24.6334  -76.5251 C.2       2 UNK         0.5004 
     61 O         -79.1594   24.8111  -77.3871 O.2       2 UNK        -0.5226 
     62 CA        -81.0818   25.7218  -76.2957 C.3       2 UNK         0.0269 
     63 CB        -82.3444   25.4185  -77.1175 C.3       2 UNK        -0.1926 
     64 N         -81.4535   25.9487  -74.8904 N.am      2 UNK        -0.4687 
     65 C         -80.5932   26.1952  -73.8915 C.2       1 UNK         0.5165 
     66 O         -79.3670   26.1426  -74.0232 O.2       1 UNK        -0.5079 
     67 H67       -77.8955   24.8329  -70.2987 H         1 UNK         0.0900 
     68 H68       -79.1460   24.2113  -69.2188 H         1 UNK         0.0900 
     69 H69       -78.8601   25.9452  -69.3157 H         1 UNK         0.0900 
     70 H70       -79.8048   27.1512  -71.0520 H         1 UNK         0.2959 
     71 H71       -82.0808   26.0004  -72.3546 H         1 UNK         0.1079 
     72 H72       -80.8869   28.7073  -73.1087 H         1 UNK         0.0837 
     73 H73       -82.5379   28.1976  -73.1945 H         1 UNK         0.0837 
     74 H74       -81.3430   31.0771  -71.5880 H         1 UNK         0.0685 
     75 H75       -80.9293   30.7547  -69.9232 H         1 UNK         0.0685 
     76 H76       -79.5345   31.2279  -73.1026 H         1 UNK         0.1434 
     77 H77       -75.9007   29.0642  -72.4558 H         1 UNK         0.1329 
     78 H78       -79.0849   28.7983  -69.5983 H         1 UNK         0.1335 
     79 H79       -77.1178   27.5912  -69.1861 H         1 UNK         0.0680 
     80 H80       -76.3091   27.0012  -70.6078 H         1 UNK         0.0680 
     81 H81       -74.2982   27.6530  -71.4734 H         1 UNK         0.1032 
     82 H82       -72.9966   27.7501  -70.3511 H         1 UNK         0.1032 
     83 H83       -74.0420   30.4071  -71.3500 H         1 UNK         0.0461 
     84 H84       -72.6063   29.8662  -68.9798 H         1 UNK         0.3453 
     85 H85       -71.0324   30.6057  -69.1582 H         1 UNK         0.3453 
     86 H86       -73.7388   30.1705  -73.4807 H         1 UNK         0.2984 
     87 H87       -73.8314   28.5880  -75.3475 H         1 UNK         0.0554 
     88 H88       -72.1933   29.7640  -76.8795 H         1 UNK         0.0847 
     89 H89       -71.0716   29.8996  -75.5248 H         1 UNK         0.0847 
     90 H90       -72.6273   30.7034  -75.4636 H         1 UNK         0.0847 
     91 H91       -73.0709   26.6405  -75.9799 H         1 UNK         0.3141 
     92 H92       -70.1169   25.4799  -77.3198 H         1 UNK         0.0743 
     93 H93       -71.1172   24.4096  -74.6244 H         1 UNK         0.0784 
     94 H94       -70.1733   23.5023  -75.8094 H         1 UNK         0.0784 
     95 H95       -69.4636   24.8803  -74.9865 H         1 UNK         0.0784 
     96 H96       -72.5310   24.1024  -76.6258 H         1 UNK         0.3213 
     97 H97       -73.6214   24.0851  -79.8217 H         1 UNK         0.0855 
     98 H98       -74.4045   23.3690  -76.9386 H         1 UNK         0.0814 
     99 H99       -73.2912   22.4572  -77.9626 H         1 UNK         0.0814 
    100 H100      -74.9828   22.5848  -78.3966 H         1 UNK         0.0814 
    101 H101      -75.3250   25.5788  -77.8649 H         1 UNK         0.3105 
    102 H102      -76.7527   27.5599  -80.1320 H         1 UNK         0.0547 
    103 H103      -78.0406   25.8674  -81.3335 H         1 UNK         0.0837 
    104 H104      -78.3092   24.9390  -79.8687 H         1 UNK         0.0837 
    105 H105      -79.0553   26.5257  -80.0606 H         1 UNK         0.0837 
    106 H106      -77.7812   26.1949  -77.7273 H         1 UNK         0.3020 
    107 H107      -76.1082   28.4834  -75.5472 H         1 UNK         0.1245 
    108 H108      -78.6300   28.4851  -74.7138 H         1 UNK         0.0781 
    109 H109      -79.0344   28.4958  -76.3978 H         1 UNK         0.0781 
    110 H110      -76.9575   31.9224  -74.0147 H         1 UNK         0.0836 
    111 H111      -76.0281   30.4872  -74.3274 H         1 UNK         0.0836 
    112 H112      -77.8336   26.4352  -74.8383 H         1 UNK         0.3022 
    113 H113      -75.3666   23.8600  -74.5263 H         1 UNK         0.0747 
    114 H114      -76.2243   24.1117  -72.2078 H         1 UNK         0.0793 
    115 H115      -75.1661   25.4517  -72.6205 H         1 UNK         0.0793 
    116 H116      -76.9107   25.6859  -72.6045 H         1 UNK         0.0793 
    117 H117      -78.2919   24.4642  -74.3115 H         1 UNK         0.3047 
    118 H118      -79.0989   22.0331  -76.7213 H         1 UNK         0.0822 
    119 H119      -80.5533   21.0005  -74.9959 H         1 UNK         0.0807 
    120 H120      -79.6213   21.7672  -73.7083 H         1 UNK         0.0807 
    121 H121      -78.8837   20.5335  -74.7219 H         1 UNK         0.0807 
    122 H122      -80.7909   23.5321  -75.0161 H         1 UNK         0.2946 
    123 H123      -80.6563   26.6560  -76.6673 H         1 UNK         0.1144 
    124 H124      -83.0558   26.2433  -77.0732 H         1 UNK         0.0793 
    125 H125      -82.8497   24.5185  -76.7650 H         1 UNK         0.0793 
    126 H126      -82.0982   25.2636  -78.1693 H         1 UNK         0.0793 
    127 H127      -82.4438   26.0051  -74.6986 H         1 UNK         0.2896 
@<TRIPOS>BOND
     1    1    2 1    
     2    1   67 1    
     3    1   68 1    
     4    1   69 1    
     5    2    3 2    
     6    2    4 am   BACKBONE|DICT|INTERRES
     7    4    5 1    
     8    4   70 1    
     9    5    6 1    
    10    5   65 1    
    11    5   71 1    
    12    6    7 1    
    13    6   72 1    
    14    6   73 1    
    15    7    8 1    
    16    8    9 1    
    17    8   74 1    
    18    8   75 1    
    19    9   10 ar   
    20    9   14 ar   
    21   10   11 ar   
    22   10   76 1    
    23   11   12 ar   
    24   11   48 1    
    25   12   13 ar   
    26   12   77 1    
    27   13   14 ar   
    28   13   15 1    
    29   14   78 1    
    30   15   16 1    
    31   15   79 1    
    32   15   80 1    
    33   16   17 1    
    34   17   18 1    
    35   17   81 1    
    36   17   82 1    
    37   18   19 1    
    38   18   22 1    
    39   18   83 1    
    40   19   20 am   BACKBONE|DICT|INTERRES
    41   19   21 2    
    42   20   84 1    
    43   20   85 1    
    44   22   23 am   BACKBONE|DICT|INTERRES
    45   22   86 1    
    46   23   24 2    
    47   23   25 1    
    48   25   26 1    
    49   25   27 1    
    50   25   87 1    
    51   26   88 1    
    52   26   89 1    
    53   26   90 1    
    54   27   28 am   BACKBONE|DICT|INTERRES
    55   27   91 1    
    56   28   29 2    
    57   28   30 1    
    58   30   31 1    
    59   30   32 1    
    60   30   92 1    
    61   31   93 1    
    62   31   94 1    
    63   31   95 1    
    64   32   33 am   BACKBONE|DICT|INTERRES
    65   32   96 1    
    66   33   34 2    
    67   33   35 1    
    68   35   36 1    
    69   35   37 1    
    70   35   97 1    
    71   36   98 1    
    72   36   99 1    
    73   36  100 1    
    74   37   38 am   BACKBONE|DICT|INTERRES
    75   37  101 1    
    76   38   39 2    
    77   38   40 1    
    78   40   41 1    
    79   40   42 1    
    80   40  102 1    
    81   41  103 1    
    82   41  104 1    
    83   41  105 1    
    84   42   43 am   BACKBONE|DICT|INTERRES
    85   42  106 1    
    86   43   44 2    
    87   43   45 1    
    88   45   46 1    
    89   45   49 1    
    90   45  107 1    
    91   46   47 1    
    92   46  108 1    
    93   46  109 1    
    94   47   48 1    
    95   48  110 1    
    96   48  111 1    
    97   49   50 am   BACKBONE|DICT|INTERRES
    98   49  112 1    
    99   50   51 2    
   100   50   52 1    
   101   52   53 1    
   102   52   54 1    
   103   52  113 1    
   104   53  114 1    
   105   53  115 1    
   106   53  116 1    
   107   54   55 am   BACKBONE|DICT|INTERRES
   108   54  117 1    
   109   55   56 2    
   110   55   57 1    
   111   57   58 1    
   112   57   59 1    
   113   57  118 1    
   114   58  119 1    
   115   58  120 1    
   116   58  121 1    
   117   59   60 am   BACKBONE|DICT|INTERRES
   118   59  122 1    
   119   60   61 2    
   120   60   62 1    
   121   62   63 1    
   122   62   64 1    
   123   62  123 1    
   124   63  124 1    
   125   63  125 1    
   126   63  126 1    
   127   64   65 am   BACKBONE|DICT|INTERRES
   128   64  127 1    
   129   65   66 2    
@<TRIPOS>SUBSTRUCTURE
     1 UNK         1 GROUP             0       ****    0 ROOT    
