@<TRIPOS>MOLECULE
3R135
127   129    1
SMALL
USER_CHARGES


@<TRIPOS>ATOM
      1 CA        -82.7927   27.3121  -70.3005 C.3       0 UNK        -0.1998 
      2 C         -83.2750   27.2712  -71.7427 C.2       0 UNK         0.4909 
      3 O         -84.3721   26.7808  -72.0102 O.2       0 UNK        -0.5240 
      4 N         -82.4604   27.7815  -72.6749 N.am      1 UNK        -0.4739 
      5 CA        -82.7373   27.8041  -74.1178 C.3       1 UNK         0.0864 
      6 C6        -81.9254   28.9144  -74.8381 C.3       11 UNK        -0.0881 
      7 S7        -80.1151   28.7500  -74.6523 S.3       11 UNK        -0.2682 
      8 C8        -79.7490   30.0087  -73.3901 C.3       11 UNK         0.0289 
      9 C9        -78.4525   29.6806  -72.6667 C.ar      11 UNK        -0.0687 
     10 C10       -78.3977   28.5667  -71.8250 C.ar      11 UNK        -0.0823 
     11 C11       -77.2164   28.2347  -71.1601 C.ar      11 UNK        -0.0830 
     12 C12       -76.0848   29.0379  -71.3285 C.ar      11 UNK        -0.1021 
     13 C13       -76.1212   30.1566  -72.1687 C.ar      11 UNK        -0.0753 
     14 C14       -77.3135   30.4761  -72.8308 C.ar      11 UNK        -0.0933 
     15 C15       -74.8773   31.0241  -72.3365 C.3       11 UNK         0.0166 
     16 S16       -74.3798   31.2036  -74.0802 S.3       11 UNK        -0.2615 
     17 C17       -72.7536   32.0254  -73.9130 C.3       11 UNK        -0.0865 
     18 CA        -71.6049   31.2186  -74.5880 C.3       10 UNK         0.0862 
     19 C         -70.2579   32.0028  -74.6419 C.2       10 UNK         0.5551 
     20 N         -69.1092   31.3380  -74.6178 N.am      10 UNK        -0.7319 
     21 O         -70.2490   33.2279  -74.7400 O.2       10 UNK        -0.5018 
     22 N         -71.5089   29.8381  -74.0824 N.am      10 UNK        -0.4509 
     23 C         -71.1560   29.4449  -72.8559 C.2       10 UNK         0.4899 
     24 O         -70.7520   30.2160  -71.9849 O.2       10 UNK        -0.4839 
     25 CA        -71.2881   27.9464  -72.5053 C.3       9 UNK         0.0222 
     26 CB        -72.6188   27.7027  -71.7686 C.3       9 UNK        -0.1966 
     27 N         -71.1251   26.9516  -73.5845 N.am      9 UNK        -0.4218 
     28 C         -71.8358   26.7849  -74.7118 C.2       9 UNK         0.5020 
     29 O         -72.6103   27.6279  -75.1619 O.2       9 UNK        -0.5274 
     30 CA        -71.6433   25.4470  -75.4561 C.3       8 UNK         0.0270 
     31 CB        -71.6743   24.2421  -74.4946 C.3       8 UNK        -0.1976 
     32 N         -72.6933   25.2572  -76.4600 N.am      8 UNK        -0.4313 
     33 C         -72.6635   25.7399  -77.7084 C.2       8 UNK         0.5041 
     34 O         -71.6813   26.2881  -78.2125 O.2       8 UNK        -0.5577 
     35 CA        -73.9484   25.5825  -78.5381 C.3       7 UNK         0.0284 
     36 CB        -74.0809   24.1474  -79.0738 C.3       7 UNK        -0.1958 
     37 N         -75.1525   25.9434  -77.7845 N.am      7 UNK        -0.4454 
     38 C         -75.5101   27.1988  -77.4714 C.2       7 UNK         0.5089 
     39 O         -74.8913   28.1986  -77.8375 O.2       7 UNK        -0.5125 
     40 CA        -76.7963   27.3735  -76.6407 C.3       6 UNK         0.0408 
     41 CB        -78.0266   27.3753  -77.5628 C.3       6 UNK        -0.1791 
     42 N         -76.9502   26.3357  -75.6196 N.am      6 UNK        -0.4762 
     43 C         -76.1920   26.2352  -74.5173 C.2       6 UNK         0.5007 
     44 O         -75.3710   27.0817  -74.1811 O.2       6 UNK        -0.5032 
     45 CA        -76.3281   24.9518  -73.6719 C.3       5 UNK         0.0783 
     46 C46       -77.2137   25.1458  -72.4126 C.3       11 UNK        -0.0857 
     47 S47       -76.2115   25.6456  -70.9685 S.3       11 UNK        -0.2512 
     48 C48       -77.1717   27.0158  -70.2504 C.3       11 UNK         0.0225 
     49 N         -76.7567   23.8055  -74.4790 N.am      5 UNK        -0.4615 
     50 C         -75.9549   23.1469  -75.3264 C.2       4 UNK         0.5053 
     51 O         -74.7753   23.4405  -75.5196 O.2       4 UNK        -0.5105 
     52 CA        -76.5844   21.9870  -76.1149 C.3       4 UNK         0.0263 
     53 CB        -76.6585   20.7187  -75.2500 C.3       4 UNK        -0.1981 
     54 N         -77.9165   22.3139  -76.6286 N.am      4 UNK        -0.4224 
     55 C         -78.1499   23.2414  -77.5676 C.2       3 UNK         0.4895 
     56 O         -77.2633   23.8880  -78.1237 O.2       3 UNK        -0.5091 
     57 CA        -79.6200   23.5255  -77.9203 C.3       3 UNK         0.0250 
     58 CB        -80.1106   22.5519  -79.0037 C.3       3 UNK        -0.1996 
     59 N         -80.5405   23.4938  -76.7761 N.am      3 UNK        -0.4254 
     60 C         -80.4309   24.2600  -75.6818 C.2       2 UNK         0.5004 
     61 O         -79.4727   24.9997  -75.4539 O.2       2 UNK        -0.5226 
     62 CA        -81.5545   24.1549  -74.6410 C.3       2 UNK         0.0269 
     63 CB        -81.1211   23.2489  -73.4769 C.3       2 UNK        -0.1926 
     64 N         -81.8942   25.4782  -74.1162 N.am      2 UNK        -0.4687 
     65 C         -82.5640   26.4227  -74.7942 C.2       1 UNK         0.5165 
     66 O         -83.0499   26.2356  -75.9114 O.2       1 UNK        -0.5079 
     67 H67       -82.7167   26.3009  -69.9017 H         1 UNK         0.0900 
     68 H68       -83.4990   27.8687  -69.6850 H         1 UNK         0.0900 
     69 H69       -81.8163   27.7876  -70.2087 H         1 UNK         0.0900 
     70 H70       -81.5697   28.1701  -72.4044 H         1 UNK         0.2959 
     71 H71       -83.7934   28.0557  -74.2414 H         1 UNK         0.1079 
     72 H72       -82.1579   28.9223  -75.9048 H         1 UNK         0.0837 
     73 H73       -82.2369   29.8936  -74.4712 H         1 UNK         0.0837 
     74 H74       -79.6971   30.9889  -73.8665 H         1 UNK         0.0685 
     75 H75       -80.5583   30.0598  -72.6608 H         1 UNK         0.0685 
     76 H76       -79.2752   27.9486  -71.7000 H         1 UNK         0.1434 
     77 H77       -75.1733   28.7818  -70.8076 H         1 UNK         0.1329 
     78 H78       -77.3482   31.3397  -73.4806 H         1 UNK         0.1335 
     79 H79       -75.0694   32.0111  -71.9140 H         1 UNK         0.0680 
     80 H80       -74.0415   30.6007  -71.7771 H         1 UNK         0.0680 
     81 H81       -72.5246   32.2027  -72.8610 H         1 UNK         0.1032 
     82 H82       -72.8446   33.0129  -74.3687 H         1 UNK         0.1032 
     83 H83       -71.8811   31.1045  -75.6367 H         1 UNK         0.0461 
     84 H84       -68.2398   31.8455  -74.6633 H         1 UNK         0.3453 
     85 H85       -69.1084   30.3333  -74.5430 H         1 UNK         0.3453 
     86 H86       -71.9017   29.1166  -74.6881 H         1 UNK         0.2984 
     87 H87       -70.4838   27.7333  -71.7995 H         1 UNK         0.0554 
     88 H88       -72.6984   26.6764  -71.4104 H         1 UNK         0.0847 
     89 H89       -73.4742   27.8964  -72.4175 H         1 UNK         0.0847 
     90 H90       -72.7127   28.3570  -70.9011 H         1 UNK         0.0847 
     91 H91       -70.4570   26.2247  -73.3693 H         1 UNK         0.3141 
     92 H92       -70.6703   25.4737  -75.9509 H         1 UNK         0.0743 
     93 H93       -72.5777   24.2400  -73.8827 H         1 UNK         0.0784 
     94 H94       -71.6458   23.2997  -75.0422 H         1 UNK         0.0784 
     95 H95       -70.8179   24.2403  -73.8200 H         1 UNK         0.0784 
     96 H96       -73.5433   24.8021  -76.1373 H         1 UNK         0.3213 
     97 H97       -73.8725   26.2547  -79.3956 H         1 UNK         0.0855 
     98 H98       -73.1963   23.8599  -79.6435 H         1 UNK         0.0814 
     99 H99       -74.9397   24.0515  -79.7385 H         1 UNK         0.0814 
    100 H100      -74.2012   23.4226  -78.2680 H         1 UNK         0.0814 
    101 H101      -75.7736   25.1853  -77.5226 H         1 UNK         0.3105 
    102 H102      -76.7485   28.3396  -76.1331 H         1 UNK         0.0547 
    103 H103      -78.9535   27.4578  -76.9969 H         1 UNK         0.0837 
    104 H104      -78.0853   26.4667  -78.1615 H         1 UNK         0.0837 
    105 H105      -77.9904   28.2179  -78.2541 H         1 UNK         0.0837 
    106 H106      -77.6955   25.6579  -75.7571 H         1 UNK         0.3020 
    107 H107      -75.3148   24.7170  -73.3353 H         1 UNK         0.1245 
    108 H108      -77.6975   24.2073  -72.1379 H         1 UNK         0.0781 
    109 H109      -78.0266   25.8501  -72.5968 H         1 UNK         0.0781 
    110 H110      -76.7205   27.2982  -69.2981 H         1 UNK         0.0836 
    111 H111      -78.1776   26.6640  -70.0159 H         1 UNK         0.0836 
    112 H112      -77.7347   23.5599  -74.4347 H         1 UNK         0.3022 
    113 H113      -75.9362   21.7783  -76.9689 H         1 UNK         0.0747 
    114 H114      -77.0238   19.8677  -75.8252 H         1 UNK         0.0793 
    115 H115      -75.6722   20.4501  -74.8687 H         1 UNK         0.0793 
    116 H116      -77.3158   20.8500  -74.3895 H         1 UNK         0.0793 
    117 H117      -78.7031   21.8262  -76.2255 H         1 UNK         0.3047 
    118 H118      -79.6598   24.5358  -78.3327 H         1 UNK         0.0822 
    119 H119      -81.1095   22.8151  -79.3520 H         1 UNK         0.0807 
    120 H120      -80.1403   21.5235  -78.6414 H         1 UNK         0.0807 
    121 H121      -79.4520   22.5720  -79.8735 H         1 UNK         0.0807 
    122 H122      -81.3505   22.8979  -76.8716 H         1 UNK         0.2946 
    123 H123      -82.4438   23.7284  -75.1108 H         1 UNK         0.1144 
    124 H124      -80.8797   22.2454  -73.8300 H         1 UNK         0.0793 
    125 H125      -81.9155   23.1477  -72.7371 H         1 UNK         0.0793 
    126 H126      -80.2378   23.6379  -72.9684 H         1 UNK         0.0793 
    127 H127      -81.4996   25.7301  -73.2230 H         1 UNK         0.2896 
@<TRIPOS>BOND
     1    1    2 1    
     2    1   67 1    
     3    1   68 1    
     4    1   69 1    
     5    2    3 2    
     6    2    4 am   BACKBONE|DICT|INTERRES
     7    4    5 1    
     8    4   70 1    
     9    5    6 1    
    10    5   65 1    
    11    5   71 1    
    12    6    7 1    
    13    6   72 1    
    14    6   73 1    
    15    7    8 1    
    16    8    9 1    
    17    8   74 1    
    18    8   75 1    
    19    9   10 ar   
    20    9   14 ar   
    21   10   11 ar   
    22   10   76 1    
    23   11   12 ar   
    24   11   48 1    
    25   12   13 ar   
    26   12   77 1    
    27   13   14 ar   
    28   13   15 1    
    29   14   78 1    
    30   15   16 1    
    31   15   79 1    
    32   15   80 1    
    33   16   17 1    
    34   17   18 1    
    35   17   81 1    
    36   17   82 1    
    37   18   19 1    
    38   18   22 1    
    39   18   83 1    
    40   19   20 am   BACKBONE|DICT|INTERRES
    41   19   21 2    
    42   20   84 1    
    43   20   85 1    
    44   22   23 am   BACKBONE|DICT|INTERRES
    45   22   86 1    
    46   23   24 2    
    47   23   25 1    
    48   25   26 1    
    49   25   27 1    
    50   25   87 1    
    51   26   88 1    
    52   26   89 1    
    53   26   90 1    
    54   27   28 am   BACKBONE|DICT|INTERRES
    55   27   91 1    
    56   28   29 2    
    57   28   30 1    
    58   30   31 1    
    59   30   32 1    
    60   30   92 1    
    61   31   93 1    
    62   31   94 1    
    63   31   95 1    
    64   32   33 am   BACKBONE|DICT|INTERRES
    65   32   96 1    
    66   33   34 2    
    67   33   35 1    
    68   35   36 1    
    69   35   37 1    
    70   35   97 1    
    71   36   98 1    
    72   36   99 1    
    73   36  100 1    
    74   37   38 am   BACKBONE|DICT|INTERRES
    75   37  101 1    
    76   38   39 2    
    77   38   40 1    
    78   40   41 1    
    79   40   42 1    
    80   40  102 1    
    81   41  103 1    
    82   41  104 1    
    83   41  105 1    
    84   42   43 am   BACKBONE|DICT|INTERRES
    85   42  106 1    
    86   43   44 2    
    87   43   45 1    
    88   45   46 1    
    89   45   49 1    
    90   45  107 1    
    91   46   47 1    
    92   46  108 1    
    93   46  109 1    
    94   47   48 1    
    95   48  110 1    
    96   48  111 1    
    97   49   50 am   BACKBONE|DICT|INTERRES
    98   49  112 1    
    99   50   51 2    
   100   50   52 1    
   101   52   53 1    
   102   52   54 1    
   103   52  113 1    
   104   53  114 1    
   105   53  115 1    
   106   53  116 1    
   107   54   55 am   BACKBONE|DICT|INTERRES
   108   54  117 1    
   109   55   56 2    
   110   55   57 1    
   111   57   58 1    
   112   57   59 1    
   113   57  118 1    
   114   58  119 1    
   115   58  120 1    
   116   58  121 1    
   117   59   60 am   BACKBONE|DICT|INTERRES
   118   59  122 1    
   119   60   61 2    
   120   60   62 1    
   121   62   63 1    
   122   62   64 1    
   123   62  123 1    
   124   63  124 1    
   125   63  125 1    
   126   63  126 1    
   127   64   65 am   BACKBONE|DICT|INTERRES
   128   64  127 1    
   129   65   66 2    
@<TRIPOS>SUBSTRUCTURE
     1 UNK         1 GROUP             0       ****    0 ROOT    
