@<TRIPOS>MOLECULE
3R135
127   129    1
SMALL
USER_CHARGES


@<TRIPOS>ATOM
      1 CA        -77.0062   28.2385  -75.2161 C.3       0 UNK        -0.1998 
      2 C         -78.2175   27.4518  -74.7416 C.2       0 UNK         0.4909 
      3 O         -78.1429   26.2265  -74.6319 O.2       0 UNK        -0.5240 
      4 N         -79.3333   28.1405  -74.4655 N.am      1 UNK        -0.4739 
      5 CA        -80.5739   27.5448  -73.9513 C.3       1 UNK         0.0864 
      6 C6        -81.6297   28.6003  -73.5386 C.3       11 UNK        -0.0881 
      7 S7        -80.9955   29.9573  -72.4959 S.3       11 UNK        -0.2682 
      8 C8        -80.5089   29.0966  -70.9637 C.3       11 UNK         0.0289 
      9 C9        -79.0449   28.6693  -70.9731 C.ar      11 UNK        -0.0687 
     10 C10       -78.6902   27.3331  -70.7633 C.ar      11 UNK        -0.0823 
     11 C11       -77.3463   26.9434  -70.7238 C.ar      11 UNK        -0.0830 
     12 C12       -76.3515   27.9172  -70.8843 C.ar      11 UNK        -0.1021 
     13 C13       -76.6912   29.2547  -71.1077 C.ar      11 UNK        -0.0753 
     14 C14       -78.0381   29.6229  -71.1472 C.ar      11 UNK        -0.0933 
     15 C15       -75.6101   30.3110  -71.2844 C.3       11 UNK         0.0166 
     16 S16       -74.7215   30.1080  -72.8602 S.3       11 UNK        -0.2615 
     17 C17       -73.1452   29.3701  -72.3019 C.3       11 UNK        -0.0865 
     18 CA        -71.9975   30.4231  -72.2273 C.3       10 UNK         0.0862 
     19 C         -70.7064   29.8605  -71.5560 C.2       10 UNK         0.5551 
     20 N         -69.5154   30.2904  -71.9545 N.am      10 UNK        -0.7319 
     21 O         -70.7830   29.0504  -70.6354 O.2       10 UNK        -0.5018 
     22 N         -71.7832   31.1246  -73.5094 N.am      10 UNK        -0.4509 
     23 C         -71.3949   30.5476  -74.6522 C.2       10 UNK         0.4899 
     24 O         -71.0619   29.3658  -74.7532 O.2       10 UNK        -0.4839 
     25 CA        -71.3882   31.4331  -75.9045 C.3       9 UNK         0.0222 
     26 CB        -69.9559   31.6511  -76.4184 C.3       9 UNK        -0.1966 
     27 N         -72.1756   30.7568  -76.9305 N.am      9 UNK        -0.4218 
     28 C         -73.4992   30.8724  -77.0816 C.2       9 UNK         0.5020 
     29 O         -74.1817   31.7292  -76.5191 O.2       9 UNK        -0.5274 
     30 CA        -74.1918   29.8349  -77.9843 C.3       8 UNK         0.0270 
     31 CB        -73.9364   30.1178  -79.4782 C.3       8 UNK        -0.1976 
     32 N         -73.8806   28.4420  -77.6238 N.am      8 UNK        -0.4313 
     33 C         -72.7128   27.7862  -77.7073 C.2       8 UNK         0.5041 
     34 O         -71.6838   28.2776  -78.1747 O.2       8 UNK        -0.5577 
     35 CA        -72.6650   26.3548  -77.1428 C.3       7 UNK         0.0284 
     36 CB        -71.8531   26.3181  -75.8376 C.3       7 UNK        -0.1958 
     37 N         -73.9867   25.7793  -76.8814 N.am      7 UNK        -0.4454 
     38 C         -74.7771   25.2124  -77.8016 C.2       7 UNK         0.5089 
     39 O         -74.4954   25.1711  -78.9999 O.2       7 UNK        -0.5125 
     40 CA        -76.1132   24.6115  -77.3142 C.3       6 UNK         0.0408 
     41 CB        -76.4077   23.2505  -77.9781 C.3       6 UNK        -0.1791 
     42 N         -76.2634   24.5193  -75.8529 N.am      6 UNK        -0.4762 
     43 C         -75.5497   23.7722  -74.9934 C.2       6 UNK         0.5007 
     44 O         -74.5934   23.0714  -75.3238 O.2       6 UNK        -0.5032 
     45 CA        -75.9773   23.8107  -73.5169 C.3       5 UNK         0.0783 
     46 C46       -75.4419   25.0829  -72.8106 C.3       11 UNK        -0.0857 
     47 S47       -75.3731   24.8955  -70.9983 S.3       11 UNK        -0.2512 
     48 C48       -77.0217   25.4724  -70.4583 C.3       11 UNK         0.0225 
     49 N         -77.4370   23.7114  -73.4466 N.am      5 UNK        -0.4615 
     50 C         -78.1063   22.6666  -72.9498 C.2       4 UNK         0.5053 
     51 O         -77.5730   21.6967  -72.4099 O.2       4 UNK        -0.5105 
     52 CA        -79.6375   22.7061  -73.0840 C.3       4 UNK         0.0263 
     53 CB        -80.2432   23.7716  -72.1562 C.3       4 UNK        -0.1981 
     54 N         -80.1037   22.9104  -74.4621 N.am      4 UNK        -0.4224 
     55 C         -79.8859   22.0480  -75.4706 C.2       3 UNK         0.4895 
     56 O         -79.1963   21.0338  -75.3588 O.2       3 UNK        -0.5091 
     57 CA        -80.5785   22.3028  -76.8231 C.3       3 UNK         0.0250 
     58 CB        -81.6309   21.2140  -77.0976 C.3       3 UNK        -0.1996 
     59 N         -81.2328   23.6078  -76.9078 N.am      3 UNK        -0.4254 
     60 C         -80.6649   24.7155  -77.3976 C.2       2 UNK         0.5004 
     61 O         -79.5207   24.7613  -77.8469 O.2       2 UNK        -0.5226 
     62 CA        -81.5054   26.0039  -77.3714 C.3       2 UNK         0.0269 
     63 CB        -83.0330   25.7651  -77.4065 C.3       2 UNK        -0.1926 
     64 N         -81.1243   26.8469  -76.2350 N.am      2 UNK        -0.4687 
     65 C         -81.1922   26.5297  -74.9324 C.2       1 UNK         0.5165 
     66 O         -81.6787   25.4838  -74.4996 O.2       1 UNK        -0.5079 
     67 H67       -76.8187   28.0332  -76.2690 H         1 UNK         0.0900 
     68 H68       -76.1250   27.9511  -74.6435 H         1 UNK         0.0900 
     69 H69       -77.1472   29.3125  -75.0941 H         1 UNK         0.0900 
     70 H70       -79.3345   29.1477  -74.5421 H         1 UNK         0.2959 
     71 H71       -80.3027   26.9817  -73.0587 H         1 UNK         0.1079 
     72 H72       -82.0694   29.0629  -74.4246 H         1 UNK         0.0837 
     73 H73       -82.4570   28.1210  -73.0111 H         1 UNK         0.0837 
     74 H74       -80.6623   29.7752  -70.1235 H         1 UNK         0.0685 
     75 H75       -81.1708   28.2462  -70.7929 H         1 UNK         0.0685 
     76 H76       -79.4647   26.5934  -70.6134 H         1 UNK         0.1434 
     77 H77       -75.3080   27.6426  -70.8379 H         1 UNK         0.1329 
     78 H78       -78.3087   30.6579  -71.3059 H         1 UNK         0.1335 
     79 H79       -74.9199   30.2796  -70.4404 H         1 UNK         0.0680 
     80 H80       -76.0495   31.3096  -71.2713 H         1 UNK         0.0680 
     81 H81       -72.8811   28.5626  -72.9860 H         1 UNK         0.1032 
     82 H82       -73.2963   28.8909  -71.3336 H         1 UNK         0.1032 
     83 H83       -72.3312   31.1995  -71.5379 H         1 UNK         0.0461 
     84 H84       -68.6848   29.9325  -71.5098 H         1 UNK         0.3453 
     85 H85       -69.4416   30.9577  -72.7053 H         1 UNK         0.3453 
     86 H86       -72.0276   32.1044  -73.5157 H         1 UNK         0.2984 
     87 H87       -71.8278   32.4062  -75.6756 H         1 UNK         0.0554 
     88 H88       -69.9477   32.2693  -77.3162 H         1 UNK         0.0847 
     89 H89       -69.4632   30.7075  -76.6580 H         1 UNK         0.0847 
     90 H90       -69.3457   32.1576  -75.6697 H         1 UNK         0.0847 
     91 H91       -71.7376   29.9572  -77.3864 H         1 UNK         0.3141 
     92 H92       -75.2646   29.9453  -77.8164 H         1 UNK         0.0743 
     93 H93       -74.2699   31.1217  -79.7443 H         1 UNK         0.0784 
     94 H94       -72.8793   30.0511  -79.7366 H         1 UNK         0.0784 
     95 H95       -74.4801   29.4170  -80.1117 H         1 UNK         0.0784 
     96 H96       -74.6418   27.9319  -77.2019 H         1 UNK         0.3213 
     97 H97       -72.1512   25.7343  -77.8806 H         1 UNK         0.0855 
     98 H98       -70.8510   26.7230  -75.9881 H         1 UNK         0.0814 
     99 H99       -71.7371   25.2985  -75.4694 H         1 UNK         0.0814 
    100 H100      -72.3244   26.9092  -75.0513 H         1 UNK         0.0814 
    101 H101      -74.2893   25.7416  -75.9199 H         1 UNK         0.3105 
    102 H102      -76.8840   25.3098  -77.6420 H         1 UNK         0.0547 
    103 H103      -76.4681   23.3485  -79.0625 H         1 UNK         0.0837 
    104 H104      -75.6326   22.5153  -77.7607 H         1 UNK         0.0837 
    105 H105      -77.3607   22.8448  -77.6397 H         1 UNK         0.0837 
    106 H106      -77.0131   25.0922  -75.4670 H         1 UNK         0.3020 
    107 H107      -75.5144   22.9395  -73.0469 H         1 UNK         0.1245 
    108 H108      -76.0295   25.9635  -73.0699 H         1 UNK         0.0781 
    109 H109      -74.4208   25.3015  -73.1300 H         1 UNK         0.0781 
    110 H110      -77.1034   25.2983  -69.3848 H         1 UNK         0.0836 
    111 H111      -77.7750   24.8392  -70.9239 H         1 UNK         0.0836 
    112 H112      -77.9521   24.4816  -73.8638 H         1 UNK         0.3022 
    113 H113      -80.0168   21.7346  -72.7600 H         1 UNK         0.0747 
    114 H114      -81.3323   23.7687  -72.2048 H         1 UNK         0.0793 
    115 H115      -79.9657   23.5876  -71.1176 H         1 UNK         0.0793 
    116 H116      -79.8990   24.7719  -72.4153 H         1 UNK         0.0793 
    117 H117      -80.6750   23.7326  -74.6305 H         1 UNK         0.3047 
    118 H118      -79.8109   22.2286  -77.5964 H         1 UNK         0.0822 
    119 H119      -82.0939   21.3478  -78.0755 H         1 UNK         0.0807 
    120 H120      -82.4225   21.2181  -76.3473 H         1 UNK         0.0807 
    121 H121      -81.1797   20.2207  -77.0898 H         1 UNK         0.0807 
    122 H122      -82.1642   23.6787  -76.5228 H         1 UNK         0.2946 
    123 H123      -81.2409   26.5552  -78.2755 H         1 UNK         0.1144 
    124 H124      -83.3110   25.1404  -78.2565 H         1 UNK         0.0793 
    125 H125      -83.5695   26.7077  -77.5155 H         1 UNK         0.0793 
    126 H126      -83.4083   25.2805  -76.5051 H         1 UNK         0.0793 
    127 H127      -80.6596   27.7123  -76.4723 H         1 UNK         0.2896 
@<TRIPOS>BOND
     1    1    2 1    
     2    1   67 1    
     3    1   68 1    
     4    1   69 1    
     5    2    3 2    
     6    2    4 am   BACKBONE|DICT|INTERRES
     7    4    5 1    
     8    4   70 1    
     9    5    6 1    
    10    5   65 1    
    11    5   71 1    
    12    6    7 1    
    13    6   72 1    
    14    6   73 1    
    15    7    8 1    
    16    8    9 1    
    17    8   74 1    
    18    8   75 1    
    19    9   10 ar   
    20    9   14 ar   
    21   10   11 ar   
    22   10   76 1    
    23   11   12 ar   
    24   11   48 1    
    25   12   13 ar   
    26   12   77 1    
    27   13   14 ar   
    28   13   15 1    
    29   14   78 1    
    30   15   16 1    
    31   15   79 1    
    32   15   80 1    
    33   16   17 1    
    34   17   18 1    
    35   17   81 1    
    36   17   82 1    
    37   18   19 1    
    38   18   22 1    
    39   18   83 1    
    40   19   20 am   BACKBONE|DICT|INTERRES
    41   19   21 2    
    42   20   84 1    
    43   20   85 1    
    44   22   23 am   BACKBONE|DICT|INTERRES
    45   22   86 1    
    46   23   24 2    
    47   23   25 1    
    48   25   26 1    
    49   25   27 1    
    50   25   87 1    
    51   26   88 1    
    52   26   89 1    
    53   26   90 1    
    54   27   28 am   BACKBONE|DICT|INTERRES
    55   27   91 1    
    56   28   29 2    
    57   28   30 1    
    58   30   31 1    
    59   30   32 1    
    60   30   92 1    
    61   31   93 1    
    62   31   94 1    
    63   31   95 1    
    64   32   33 am   BACKBONE|DICT|INTERRES
    65   32   96 1    
    66   33   34 2    
    67   33   35 1    
    68   35   36 1    
    69   35   37 1    
    70   35   97 1    
    71   36   98 1    
    72   36   99 1    
    73   36  100 1    
    74   37   38 am   BACKBONE|DICT|INTERRES
    75   37  101 1    
    76   38   39 2    
    77   38   40 1    
    78   40   41 1    
    79   40   42 1    
    80   40  102 1    
    81   41  103 1    
    82   41  104 1    
    83   41  105 1    
    84   42   43 am   BACKBONE|DICT|INTERRES
    85   42  106 1    
    86   43   44 2    
    87   43   45 1    
    88   45   46 1    
    89   45   49 1    
    90   45  107 1    
    91   46   47 1    
    92   46  108 1    
    93   46  109 1    
    94   47   48 1    
    95   48  110 1    
    96   48  111 1    
    97   49   50 am   BACKBONE|DICT|INTERRES
    98   49  112 1    
    99   50   51 2    
   100   50   52 1    
   101   52   53 1    
   102   52   54 1    
   103   52  113 1    
   104   53  114 1    
   105   53  115 1    
   106   53  116 1    
   107   54   55 am   BACKBONE|DICT|INTERRES
   108   54  117 1    
   109   55   56 2    
   110   55   57 1    
   111   57   58 1    
   112   57   59 1    
   113   57  118 1    
   114   58  119 1    
   115   58  120 1    
   116   58  121 1    
   117   59   60 am   BACKBONE|DICT|INTERRES
   118   59  122 1    
   119   60   61 2    
   120   60   62 1    
   121   62   63 1    
   122   62   64 1    
   123   62  123 1    
   124   63  124 1    
   125   63  125 1    
   126   63  126 1    
   127   64   65 am   BACKBONE|DICT|INTERRES
   128   64  127 1    
   129   65   66 2    
@<TRIPOS>SUBSTRUCTURE
     1 UNK         1 GROUP             0       ****    0 ROOT    
