@<TRIPOS>MOLECULE
3R135
127   129    1
SMALL
USER_CHARGES


@<TRIPOS>ATOM
      1 CA        -85.0637   26.4030  -69.9314 C.3       0 UNK        -0.1998 
      2 C         -84.6105   26.7951  -71.3295 C.2       0 UNK         0.4909 
      3 O         -85.4395   26.9086  -72.2329 O.2       0 UNK        -0.5240 
      4 N         -83.3008   27.0069  -71.5125 N.am      1 UNK        -0.4739 
      5 CA        -82.6675   27.3477  -72.7932 C.3       1 UNK         0.0864 
      6 C6        -81.2251   27.8882  -72.6105 C.3       11 UNK        -0.0881 
      7 S7        -80.1893   26.8973  -71.4716 S.3       11 UNK        -0.2682 
      8 C8        -79.0945   28.1713  -70.7616 C.3       11 UNK         0.0289 
      9 C9        -77.9354   28.4967  -71.6929 C.ar      11 UNK        -0.0687 
     10 C10       -78.1232   29.3522  -72.7822 C.ar      11 UNK        -0.0823 
     11 C11       -77.0770   29.6156  -73.6712 C.ar      11 UNK        -0.0830 
     12 C12       -75.8217   29.0487  -73.4396 C.ar      11 UNK        -0.1021 
     13 C13       -75.6162   28.2028  -72.3460 C.ar      11 UNK        -0.0753 
     14 C14       -76.6758   27.9287  -71.4765 C.ar      11 UNK        -0.0933 
     15 C15       -74.2549   27.5608  -72.1287 C.3       11 UNK         0.0166 
     16 S16       -73.3532   28.2492  -70.7041 S.3       11 UNK        -0.2615 
     17 C17       -73.2903   30.0469  -71.0497 C.3       11 UNK        -0.0865 
     18 CA        -71.9850   30.5545  -71.7184 C.3       10 UNK         0.0862 
     19 C         -70.7167   30.3000  -70.8487 C.2       10 UNK         0.5551 
     20 N         -69.7045   29.5939  -71.3383 N.am      10 UNK        -0.7319 
     21 O         -70.6461   30.7681  -69.7148 O.2       10 UNK        -0.5018 
     22 N         -71.8864   30.1329  -73.1274 N.am      10 UNK        -0.4509 
     23 C         -71.1793   30.7812  -74.0634 C.2       10 UNK         0.4899 
     24 O         -70.5424   31.8118  -73.8392 O.2       10 UNK        -0.4839 
     25 CA        -71.1719   30.1705  -75.4779 C.3       9 UNK         0.0222 
     26 CB        -70.1637   30.8611  -76.4168 C.3       9 UNK        -0.1966 
     27 N         -70.8717   28.7375  -75.4318 N.am      9 UNK        -0.4218 
     28 C         -71.7891   27.7649  -75.4257 C.2       9 UNK         0.5020 
     29 O         -73.0025   27.9695  -75.4526 O.2       9 UNK        -0.5274 
     30 CA        -71.2579   26.3339  -75.3118 C.3       8 UNK         0.0270 
     31 CB        -70.9702   25.9693  -73.8429 C.3       8 UNK        -0.1976 
     32 N         -72.2328   25.4007  -75.8709 N.am      8 UNK        -0.4313 
     33 C         -71.9278   24.2148  -76.4123 C.2       8 UNK         0.5041 
     34 O         -70.7805   23.7711  -76.4848 O.2       8 UNK        -0.5577 
     35 CA        -73.0841   23.3777  -76.9778 C.3       7 UNK         0.0284 
     36 CB        -73.7837   22.5860  -75.8598 C.3       7 UNK        -0.1958 
     37 N         -74.0606   24.2060  -77.6850 N.am      7 UNK        -0.4454 
     38 C         -73.9704   24.5486  -78.9781 C.2       7 UNK         0.5089 
     39 O         -73.0523   24.1897  -79.7164 O.2       7 UNK        -0.5125 
     40 CA        -75.0958   25.4216  -79.5633 C.3       6 UNK         0.0408 
     41 CB        -76.0835   24.5552  -80.3612 C.3       6 UNK        -0.1791 
     42 N         -75.8273   26.1575  -78.5308 N.am      6 UNK        -0.4762 
     43 C         -75.4230   27.3266  -78.0084 C.2       6 UNK         0.5007 
     44 O         -74.4497   27.9537  -78.4272 O.2       6 UNK        -0.5032 
     45 CA        -76.2381   27.8954  -76.8247 C.3       5 UNK         0.0783 
     46 C46       -77.1811   29.0203  -77.3268 C.3       11 UNK        -0.0857 
     47 S47       -78.3796   29.6564  -76.1038 S.3       11 UNK        -0.2512 
     48 C48       -77.3200   30.5003  -74.8849 C.3       11 UNK         0.0225 
     49 N         -76.9457   26.8591  -76.0639 N.am      5 UNK        -0.4615 
     50 C         -76.3651   25.8444  -75.4082 C.2       4 UNK         0.5053 
     51 O         -75.1477   25.6789  -75.3478 O.2       4 UNK        -0.5105 
     52 CA        -77.2896   24.7882  -74.7783 C.3       4 UNK         0.0263 
     53 CB        -77.4373   25.0305  -73.2722 C.3       4 UNK        -0.1981 
     54 N         -78.6215   24.7086  -75.3874 N.am      4 UNK        -0.4224 
     55 C         -78.8717   24.3878  -76.6652 C.2       3 UNK         0.4895 
     56 O         -77.9817   24.1912  -77.4947 O.2       3 UNK        -0.5091 
     57 CA        -80.3461   24.3203  -77.1132 C.3       3 UNK         0.0250 
     58 CB        -80.6030   23.1298  -78.0611 C.3       3 UNK        -0.1996 
     59 N         -81.3363   24.3448  -76.0247 N.am      3 UNK        -0.4254 
     60 C         -81.5390   23.4364  -75.0593 C.2       2 UNK         0.5004 
     61 O         -80.8354   22.4377  -74.9007 O.2       2 UNK        -0.5226 
     62 CA        -82.7250   23.7046  -74.1074 C.3       2 UNK         0.0269 
     63 CB        -82.9635   22.5454  -73.1211 C.3       2 UNK        -0.1926 
     64 N         -82.5919   24.9473  -73.3387 N.am      2 UNK        -0.4687 
     65 C         -82.7258   26.1934  -73.8158 C.2       1 UNK         0.5165 
     66 O         -82.9152   26.4481  -75.0067 O.2       1 UNK        -0.5079 
     67 H67       -84.2312   26.3633  -69.2291 H         1 UNK         0.0900 
     68 H68       -85.5372   25.4218  -69.9522 H         1 UNK         0.0900 
     69 H69       -85.7893   27.1242  -69.5560 H         1 UNK         0.0900 
     70 H70       -82.6616   26.9012  -70.7364 H         1 UNK         0.2959 
     71 H71       -83.2577   28.1558  -73.2322 H         1 UNK         0.1079 
     72 H72       -80.7123   27.9798  -73.5705 H         1 UNK         0.0837 
     73 H73       -81.2908   28.9037  -72.2178 H         1 UNK         0.0837 
     74 H74       -79.6610   29.0746  -70.5311 H         1 UNK         0.0685 
     75 H75       -78.7132   27.8049  -69.8073 H         1 UNK         0.0685 
     76 H76       -79.0936   29.7942  -72.9586 H         1 UNK         0.1434 
     77 H77       -75.0035   29.2542  -74.1156 H         1 UNK         0.1329 
     78 H78       -76.5198   27.2625  -70.6391 H         1 UNK         0.1335 
     79 H79       -74.3852   26.4883  -71.9783 H         1 UNK         0.0680 
     80 H80       -73.6373   27.6625  -73.0175 H         1 UNK         0.0680 
     81 H81       -73.4263   30.5589  -70.0952 H         1 UNK         0.1032 
     82 H82       -74.1508   30.3497  -71.6451 H         1 UNK         0.1032 
     83 H83       -72.0793   31.6422  -71.7395 H         1 UNK         0.0461 
     84 H84       -68.8869   29.4413  -70.7693 H         1 UNK         0.3453 
     85 H85       -69.7514   29.2178  -72.2701 H         1 UNK         0.3453 
     86 H86       -72.3738   29.2866  -73.3827 H         1 UNK         0.2984 
     87 H87       -72.1680   30.3293  -75.8969 H         1 UNK         0.0554 
     88 H88       -70.1940   30.4288  -77.4171 H         1 UNK         0.0847 
     89 H89       -69.1413   30.7786  -76.0461 H         1 UNK         0.0847 
     90 H90       -70.3887   31.9235  -76.5206 H         1 UNK         0.0847 
     91 H91       -69.8949   28.4858  -75.3692 H         1 UNK         0.3141 
     92 H92       -70.3320   26.2746  -75.8884 H         1 UNK         0.0743 
     93 H93       -71.8809   25.9657  -73.2434 H         1 UNK         0.0784 
     94 H94       -70.5181   24.9805  -73.7633 H         1 UNK         0.0784 
     95 H95       -70.2783   26.6768  -73.3845 H         1 UNK         0.0784 
     96 H96       -73.2021   25.7129  -75.8307 H         1 UNK         0.3213 
     97 H97       -72.6602   22.6541  -77.6780 H         1 UNK         0.0855 
     98 H98       -74.1899   23.2383  -75.0867 H         1 UNK         0.0814 
     99 H99       -73.0834   21.9066  -75.3722 H         1 UNK         0.0814 
    100 H100      -74.6012   21.9813  -76.2529 H         1 UNK         0.0814 
    101 H101      -74.8042   24.6057  -77.1264 H         1 UNK         0.3105 
    102 H102      -74.6395   26.1324  -80.2556 H         1 UNK         0.0547 
    103 H103      -75.5769   24.0405  -81.1787 H         1 UNK         0.0837 
    104 H104      -76.5490   23.7917  -79.7370 H         1 UNK         0.0837 
    105 H105      -76.8771   25.1588  -80.8015 H         1 UNK         0.0837 
    106 H106      -76.6381   25.6926  -78.1340 H         1 UNK         0.3020 
    107 H107      -75.5086   28.3404  -76.1487 H         1 UNK         0.1245 
    108 H108      -77.7681   28.6652  -78.1765 H         1 UNK         0.0781 
    109 H109      -76.5960   29.8621  -77.7023 H         1 UNK         0.0781 
    110 H110      -77.8153   31.4176  -74.5633 H         1 UNK         0.0836 
    111 H111      -76.3806   30.8073  -75.3471 H         1 UNK         0.0836 
    112 H112      -77.9515   26.9344  -76.0443 H         1 UNK         0.3022 
    113 H113      -76.8097   23.8178  -74.9206 H         1 UNK         0.0747 
    114 H114      -78.0146   24.2405  -72.7918 H         1 UNK         0.0793 
    115 H115      -76.4632   25.0669  -72.7826 H         1 UNK         0.0793 
    116 H116      -77.9359   25.9787  -73.0785 H         1 UNK         0.0793 
    117 H117      -79.4102   24.8499  -74.7739 H         1 UNK         0.3047 
    118 H118      -80.5168   25.2334  -77.6854 H         1 UNK         0.0822 
    119 H119      -81.6367   23.1127  -78.4066 H         1 UNK         0.0807 
    120 H120      -80.3942   22.1750  -77.5775 H         1 UNK         0.0807 
    121 H121      -79.9695   23.1883  -78.9472 H         1 UNK         0.0807 
    122 H122      -81.9413   25.1631  -76.0005 H         1 UNK         0.2946 
    123 H123      -83.6153   23.7882  -74.7354 H         1 UNK         0.1144 
    124 H124      -83.8553   22.7148  -72.5173 H         1 UNK         0.0793 
    125 H125      -82.1192   22.4113  -72.4436 H         1 UNK         0.0793 
    126 H126      -83.1096   21.6033  -73.6515 H         1 UNK         0.0793 
    127 H127      -82.4098   24.8465  -72.3503 H         1 UNK         0.2896 
@<TRIPOS>BOND
     1    1    2 1    
     2    1   67 1    
     3    1   68 1    
     4    1   69 1    
     5    2    3 2    
     6    2    4 am   BACKBONE|DICT|INTERRES
     7    4    5 1    
     8    4   70 1    
     9    5    6 1    
    10    5   65 1    
    11    5   71 1    
    12    6    7 1    
    13    6   72 1    
    14    6   73 1    
    15    7    8 1    
    16    8    9 1    
    17    8   74 1    
    18    8   75 1    
    19    9   10 ar   
    20    9   14 ar   
    21   10   11 ar   
    22   10   76 1    
    23   11   12 ar   
    24   11   48 1    
    25   12   13 ar   
    26   12   77 1    
    27   13   14 ar   
    28   13   15 1    
    29   14   78 1    
    30   15   16 1    
    31   15   79 1    
    32   15   80 1    
    33   16   17 1    
    34   17   18 1    
    35   17   81 1    
    36   17   82 1    
    37   18   19 1    
    38   18   22 1    
    39   18   83 1    
    40   19   20 am   BACKBONE|DICT|INTERRES
    41   19   21 2    
    42   20   84 1    
    43   20   85 1    
    44   22   23 am   BACKBONE|DICT|INTERRES
    45   22   86 1    
    46   23   24 2    
    47   23   25 1    
    48   25   26 1    
    49   25   27 1    
    50   25   87 1    
    51   26   88 1    
    52   26   89 1    
    53   26   90 1    
    54   27   28 am   BACKBONE|DICT|INTERRES
    55   27   91 1    
    56   28   29 2    
    57   28   30 1    
    58   30   31 1    
    59   30   32 1    
    60   30   92 1    
    61   31   93 1    
    62   31   94 1    
    63   31   95 1    
    64   32   33 am   BACKBONE|DICT|INTERRES
    65   32   96 1    
    66   33   34 2    
    67   33   35 1    
    68   35   36 1    
    69   35   37 1    
    70   35   97 1    
    71   36   98 1    
    72   36   99 1    
    73   36  100 1    
    74   37   38 am   BACKBONE|DICT|INTERRES
    75   37  101 1    
    76   38   39 2    
    77   38   40 1    
    78   40   41 1    
    79   40   42 1    
    80   40  102 1    
    81   41  103 1    
    82   41  104 1    
    83   41  105 1    
    84   42   43 am   BACKBONE|DICT|INTERRES
    85   42  106 1    
    86   43   44 2    
    87   43   45 1    
    88   45   46 1    
    89   45   49 1    
    90   45  107 1    
    91   46   47 1    
    92   46  108 1    
    93   46  109 1    
    94   47   48 1    
    95   48  110 1    
    96   48  111 1    
    97   49   50 am   BACKBONE|DICT|INTERRES
    98   49  112 1    
    99   50   51 2    
   100   50   52 1    
   101   52   53 1    
   102   52   54 1    
   103   52  113 1    
   104   53  114 1    
   105   53  115 1    
   106   53  116 1    
   107   54   55 am   BACKBONE|DICT|INTERRES
   108   54  117 1    
   109   55   56 2    
   110   55   57 1    
   111   57   58 1    
   112   57   59 1    
   113   57  118 1    
   114   58  119 1    
   115   58  120 1    
   116   58  121 1    
   117   59   60 am   BACKBONE|DICT|INTERRES
   118   59  122 1    
   119   60   61 2    
   120   60   62 1    
   121   62   63 1    
   122   62   64 1    
   123   62  123 1    
   124   63  124 1    
   125   63  125 1    
   126   63  126 1    
   127   64   65 am   BACKBONE|DICT|INTERRES
   128   64  127 1    
   129   65   66 2    
@<TRIPOS>SUBSTRUCTURE
     1 UNK         1 GROUP             0       ****    0 ROOT    
