@<TRIPOS>MOLECULE
3R135
127   129    1
SMALL
USER_CHARGES


@<TRIPOS>ATOM
      1 CA        -83.8553   30.2855  -75.0874 C.3       0 UNK        -0.1998 
      2 C         -83.4842   28.9753  -74.4083 C.2       0 UNK         0.4909 
      3 O         -84.3685   28.1686  -74.1185 O.2       0 UNK        -0.5240 
      4 N         -82.1848   28.7707  -74.1496 N.am      1 UNK        -0.4739 
      5 CA        -81.5891   27.5595  -73.5673 C.3       1 UNK         0.0864 
      6 C6        -82.1851   27.1932  -72.1749 C.3       11 UNK        -0.0881 
      7 S7        -80.9888   26.4023  -71.0388 S.3       11 UNK        -0.2682 
      8 C8        -80.4679   27.7902  -69.9744 C.3       11 UNK         0.0289 
      9 C9        -79.2938   28.5426  -70.5827 C.ar      11 UNK        -0.0687 
     10 C10       -79.5119   29.5208  -71.5544 C.ar      11 UNK        -0.0823 
     11 C11       -78.4333   30.1470  -72.1842 C.ar      11 UNK        -0.0830 
     12 C12       -77.1295   29.8401  -71.7841 C.ar      11 UNK        -0.1021 
     13 C13       -76.8941   28.8880  -70.7842 C.ar      11 UNK        -0.0753 
     14 C14       -77.9849   28.2373  -70.1979 C.ar      11 UNK        -0.0933 
     15 C15       -75.4847   28.4706  -70.3688 C.3       11 UNK         0.0166 
     16 S16       -74.1770   29.7097  -70.6710 S.3       11 UNK        -0.2615 
     17 C17       -72.6904   28.6649  -70.4884 C.3       11 UNK        -0.0865 
     18 CA        -71.6862   28.7871  -71.6658 C.3       10 UNK         0.0862 
     19 C         -70.4442   27.8881  -71.3917 C.2       10 UNK         0.5551 
     20 N         -70.2684   26.7693  -72.0842 N.am      10 UNK        -0.7319 
     21 O         -69.6298   28.2148  -70.5316 O.2       10 UNK        -0.5018 
     22 N         -72.3177   28.5744  -72.9805 N.am      10 UNK        -0.4509 
     23 C         -71.7365   28.8542  -74.1542 C.2       10 UNK         0.4899 
     24 O         -70.6299   29.3854  -74.2691 O.2       10 UNK        -0.4839 
     25 CA        -72.5224   28.4608  -75.4180 C.3       9 UNK         0.0222 
     26 CB        -72.4001   29.5362  -76.5119 C.3       9 UNK        -0.1966 
     27 N         -72.1302   27.1657  -75.9848 N.am      9 UNK        -0.4218 
     28 C         -71.9801   25.9920  -75.3520 C.2       9 UNK         0.5020 
     29 O         -72.0675   25.8323  -74.1341 O.2       9 UNK        -0.5274 
     30 CA        -71.7172   24.7760  -76.2555 C.3       8 UNK         0.0270 
     31 CB        -71.6367   23.4551  -75.4662 C.3       8 UNK        -0.1976 
     32 N         -72.7700   24.6514  -77.2625 N.am      8 UNK        -0.4313 
     33 C         -72.7761   25.2490  -78.4578 C.2       8 UNK         0.5041 
     34 O         -71.8996   26.0302  -78.8300 O.2       8 UNK        -0.5577 
     35 CA        -73.9673   24.9489  -79.3714 C.3       7 UNK         0.0284 
     36 CB        -74.1807   23.4365  -79.5757 C.3       7 UNK        -0.1958 
     37 N         -75.1872   25.5539  -78.8363 N.am      7 UNK        -0.4454 
     38 C         -76.0591   26.2567  -79.5703 C.2       7 UNK         0.5089 
     39 O         -75.9075   26.4928  -80.7701 O.2       7 UNK        -0.5125 
     40 CA        -77.3351   26.7716  -78.8819 C.3       6 UNK         0.0408 
     41 CB        -78.5230   25.8476  -79.1955 C.3       6 UNK        -0.1791 
     42 N         -77.2355   26.9404  -77.4313 N.am      6 UNK        -0.4762 
     43 C         -76.5421   27.9143  -76.8218 C.2       6 UNK         0.5007 
     44 O         -75.7858   28.6862  -77.4106 O.2       6 UNK        -0.5032 
     45 CA        -76.7471   28.0566  -75.3040 C.3       5 UNK         0.0783 
     46 C46       -78.0851   28.7782  -74.9898 C.3       11 UNK        -0.0857 
     47 S47       -77.8588   30.5933  -74.9005 S.3       11 UNK        -0.2512 
     48 C48       -78.6837   31.0996  -73.3460 C.3       11 UNK         0.0225 
     49 N         -76.6671   26.7367  -74.6757 N.am      5 UNK        -0.4615 
     50 C         -75.6868   26.3408  -73.8530 C.2       4 UNK         0.5053 
     51 O         -74.8274   27.0987  -73.4069 O.2       4 UNK        -0.5105 
     52 CA        -75.6403   24.8532  -73.4466 C.3       4 UNK         0.0263 
     53 CB        -76.0721   24.6860  -71.9804 C.3       4 UNK        -0.1981 
     54 N         -76.4601   23.9716  -74.2831 N.am      4 UNK        -0.4224 
     55 C         -76.2539   23.7113  -75.5821 C.2       3 UNK         0.4895 
     56 O         -75.2925   24.1319  -76.2233 O.2       3 UNK        -0.5091 
     57 CA        -77.3336   22.8953  -76.3159 C.3       3 UNK         0.0250 
     58 CB        -76.9302   21.4142  -76.3769 C.3       3 UNK        -0.1996 
     59 N         -78.6853   23.0128  -75.7492 N.am      3 UNK        -0.4254 
     60 C         -79.3574   24.1576  -75.5524 C.2       2 UNK         0.5004 
     61 O         -78.8846   25.2653  -75.8248 O.2       2 UNK        -0.5226 
     62 CA        -80.7603   24.0501  -74.9176 C.3       2 UNK         0.0269 
     63 CB        -80.9365   22.7999  -74.0313 C.3       2 UNK        -0.1926 
     64 N         -81.0509   25.2345  -74.1081 N.am      2 UNK        -0.4687 
     65 C         -81.5540   26.3839  -74.5721 C.2       1 UNK         0.5165 
     66 O         -81.9316   26.5379  -75.7373 O.2       1 UNK        -0.5079 
     67 H67       -84.3367   30.0874  -76.0448 H         1 UNK         0.0900 
     68 H68       -84.5521   30.8464  -74.4650 H         1 UNK         0.0900 
     69 H69       -82.9834   30.9134  -75.2700 H         1 UNK         0.0900 
     70 H70       -81.5198   29.4631  -74.4629 H         1 UNK         0.2959 
     71 H71       -80.5426   27.8157  -73.4190 H         1 UNK         0.1079 
     72 H72       -82.5717   28.0880  -71.6856 H         1 UNK         0.0837 
     73 H73       -83.0508   26.5370  -72.2845 H         1 UNK         0.0837 
     74 H74       -81.3021   28.4678  -69.7880 H         1 UNK         0.0685 
     75 H75       -80.1851   27.3899  -68.9996 H         1 UNK         0.0685 
     76 H76       -80.5238   29.7554  -71.8540 H         1 UNK         0.1434 
     77 H77       -76.3018   30.3160  -72.2906 H         1 UNK         0.1329 
     78 H78       -77.8137   27.4728  -69.4522 H         1 UNK         0.1335 
     79 H79       -75.2416   27.5551  -70.9043 H         1 UNK         0.0680 
     80 H80       -75.4722   28.2204  -69.3068 H         1 UNK         0.0680 
     81 H81       -72.2065   28.9473  -69.5512 H         1 UNK         0.1032 
     82 H82       -72.9864   27.6214  -70.3648 H         1 UNK         0.1032 
     83 H83       -71.3190   29.8153  -71.6656 H         1 UNK         0.0461 
     84 H84       -69.4634   26.1925  -71.9018 H         1 UNK         0.3453 
     85 H85       -70.9493   26.4881  -72.7869 H         1 UNK         0.3453 
     86 H86       -73.2073   28.0802  -72.9864 H         1 UNK         0.2984 
     87 H87       -73.5771   28.3945  -75.1591 H         1 UNK         0.0554 
     88 H88       -72.6893   30.5160  -76.1293 H         1 UNK         0.0847 
     89 H89       -73.0510   29.3175  -77.3588 H         1 UNK         0.0847 
     90 H90       -71.3791   29.6198  -76.8863 H         1 UNK         0.0847 
     91 H91       -72.0127   27.1416  -76.9915 H         1 UNK         0.3141 
     92 H92       -70.7543   24.9328  -76.7464 H         1 UNK         0.0743 
     93 H93       -70.8421   23.4925  -74.7197 H         1 UNK         0.0784 
     94 H94       -72.5696   23.2424  -74.9419 H         1 UNK         0.0784 
     95 H95       -71.4226   22.6128  -76.1241 H         1 UNK         0.0784 
     96 H96       -73.6135   24.1646  -76.9642 H         1 UNK         0.3213 
     97 H97       -73.7216   25.3827  -80.3433 H         1 UNK         0.0855 
     98 H98       -74.5044   22.9376  -78.6617 H         1 UNK         0.0814 
     99 H99       -73.2609   22.9525  -79.9068 H         1 UNK         0.0814 
    100 H100      -74.9365   23.2487  -80.3383 H         1 UNK         0.0814 
    101 H101      -75.3726   25.4079  -77.8497 H         1 UNK         0.3105 
    102 H102      -77.5558   27.7513  -79.3112 H         1 UNK         0.0547 
    103 H103      -79.4522   26.2403  -78.7819 H         1 UNK         0.0837 
    104 H104      -78.6660   25.7460  -80.2721 H         1 UNK         0.0837 
    105 H105      -78.3752   24.8465  -78.7915 H         1 UNK         0.0837 
    106 H106      -77.8488   26.3514  -76.8711 H         1 UNK         0.3020 
    107 H107      -75.9282   28.6766  -74.9329 H         1 UNK         0.1245 
    108 H108      -78.4654   28.4116  -74.0402 H         1 UNK         0.0781 
    109 H109      -78.8676   28.5458  -75.7154 H         1 UNK         0.0781 
    110 H110      -79.7525   31.1966  -73.5417 H         1 UNK         0.0836 
    111 H111      -78.3346   32.0955  -73.0703 H         1 UNK         0.0836 
    112 H112      -77.3585   26.0582  -74.9788 H         1 UNK         0.3022 
    113 H113      -74.6017   24.5283  -73.5405 H         1 UNK         0.0747 
    114 H114      -77.0865   25.0512  -71.8132 H         1 UNK         0.0793 
    115 H115      -76.0317   23.6422  -71.6688 H         1 UNK         0.0793 
    116 H116      -75.4104   25.2417  -71.3157 H         1 UNK         0.0793 
    117 H117      -77.2813   23.5773  -73.8491 H         1 UNK         0.3047 
    118 H118      -77.3758   23.2748  -77.3380 H         1 UNK         0.0822 
    119 H119      -75.9382   21.2970  -76.8162 H         1 UNK         0.0807 
    120 H120      -77.6225   20.8385  -76.9916 H         1 UNK         0.0807 
    121 H121      -76.9029   20.9610  -75.3852 H         1 UNK         0.0807 
    122 H122      -79.1381   22.1470  -75.4935 H         1 UNK         0.2946 
    123 H123      -81.4776   23.9903  -75.7395 H         1 UNK         0.1144 
    124 H124      -81.9144   22.7977  -73.5488 H         1 UNK         0.0793 
    125 H125      -80.1822   22.7481  -73.2447 H         1 UNK         0.0793 
    126 H126      -80.8773   21.8803  -74.6146 H         1 UNK         0.0793 
    127 H127      -80.7541   25.2068  -73.1412 H         1 UNK         0.2896 
@<TRIPOS>BOND
     1    1    2 1    
     2    1   67 1    
     3    1   68 1    
     4    1   69 1    
     5    2    3 2    
     6    2    4 am   BACKBONE|DICT|INTERRES
     7    4    5 1    
     8    4   70 1    
     9    5    6 1    
    10    5   65 1    
    11    5   71 1    
    12    6    7 1    
    13    6   72 1    
    14    6   73 1    
    15    7    8 1    
    16    8    9 1    
    17    8   74 1    
    18    8   75 1    
    19    9   10 ar   
    20    9   14 ar   
    21   10   11 ar   
    22   10   76 1    
    23   11   12 ar   
    24   11   48 1    
    25   12   13 ar   
    26   12   77 1    
    27   13   14 ar   
    28   13   15 1    
    29   14   78 1    
    30   15   16 1    
    31   15   79 1    
    32   15   80 1    
    33   16   17 1    
    34   17   18 1    
    35   17   81 1    
    36   17   82 1    
    37   18   19 1    
    38   18   22 1    
    39   18   83 1    
    40   19   20 am   BACKBONE|DICT|INTERRES
    41   19   21 2    
    42   20   84 1    
    43   20   85 1    
    44   22   23 am   BACKBONE|DICT|INTERRES
    45   22   86 1    
    46   23   24 2    
    47   23   25 1    
    48   25   26 1    
    49   25   27 1    
    50   25   87 1    
    51   26   88 1    
    52   26   89 1    
    53   26   90 1    
    54   27   28 am   BACKBONE|DICT|INTERRES
    55   27   91 1    
    56   28   29 2    
    57   28   30 1    
    58   30   31 1    
    59   30   32 1    
    60   30   92 1    
    61   31   93 1    
    62   31   94 1    
    63   31   95 1    
    64   32   33 am   BACKBONE|DICT|INTERRES
    65   32   96 1    
    66   33   34 2    
    67   33   35 1    
    68   35   36 1    
    69   35   37 1    
    70   35   97 1    
    71   36   98 1    
    72   36   99 1    
    73   36  100 1    
    74   37   38 am   BACKBONE|DICT|INTERRES
    75   37  101 1    
    76   38   39 2    
    77   38   40 1    
    78   40   41 1    
    79   40   42 1    
    80   40  102 1    
    81   41  103 1    
    82   41  104 1    
    83   41  105 1    
    84   42   43 am   BACKBONE|DICT|INTERRES
    85   42  106 1    
    86   43   44 2    
    87   43   45 1    
    88   45   46 1    
    89   45   49 1    
    90   45  107 1    
    91   46   47 1    
    92   46  108 1    
    93   46  109 1    
    94   47   48 1    
    95   48  110 1    
    96   48  111 1    
    97   49   50 am   BACKBONE|DICT|INTERRES
    98   49  112 1    
    99   50   51 2    
   100   50   52 1    
   101   52   53 1    
   102   52   54 1    
   103   52  113 1    
   104   53  114 1    
   105   53  115 1    
   106   53  116 1    
   107   54   55 am   BACKBONE|DICT|INTERRES
   108   54  117 1    
   109   55   56 2    
   110   55   57 1    
   111   57   58 1    
   112   57   59 1    
   113   57  118 1    
   114   58  119 1    
   115   58  120 1    
   116   58  121 1    
   117   59   60 am   BACKBONE|DICT|INTERRES
   118   59  122 1    
   119   60   61 2    
   120   60   62 1    
   121   62   63 1    
   122   62   64 1    
   123   62  123 1    
   124   63  124 1    
   125   63  125 1    
   126   63  126 1    
   127   64   65 am   BACKBONE|DICT|INTERRES
   128   64  127 1    
   129   65   66 2    
@<TRIPOS>SUBSTRUCTURE
     1 UNK         1 GROUP             0       ****    0 ROOT    
