@<TRIPOS>MOLECULE
3R135
127   129    1
SMALL
USER_CHARGES


@<TRIPOS>ATOM
      1 CA        -83.7684   27.5083  -72.0435 C.3       0 UNK        -0.1998 
      2 C         -82.7048   27.2960  -73.1096 C.2       0 UNK         0.4909 
      3 O         -81.7503   26.5571  -72.8750 O.2       0 UNK        -0.5240 
      4 N         -82.8688   27.9406  -74.2748 N.am      1 UNK        -0.4739 
      5 CA        -81.9636   27.9011  -75.4373 C.3       1 UNK         0.0864 
      6 C6        -80.5651   28.5204  -75.1577 C.3       11 UNK        -0.0881 
      7 S7        -80.6264   30.2876  -74.7127 S.3       11 UNK        -0.2682 
      8 C8        -80.3768   30.2546  -72.9087 C.3       11 UNK         0.0289 
      9 C9        -79.0095   29.7231  -72.4949 C.ar      11 UNK        -0.0687 
     10 C10       -78.9112   28.5356  -71.7618 C.ar      11 UNK        -0.0823 
     11 C11       -77.6712   28.0831  -71.3001 C.ar      11 UNK        -0.0830 
     12 C12       -76.5196   28.8150  -71.6020 C.ar      11 UNK        -0.1021 
     13 C13       -76.6019   30.0000  -72.3408 C.ar      11 UNK        -0.0753 
     14 C14       -77.8494   30.4489  -72.7855 C.ar      11 UNK        -0.0933 
     15 C15       -75.3463   30.8162  -72.6084 C.3       11 UNK         0.0166 
     16 S16       -74.4865   30.2494  -74.1068 S.3       11 UNK        -0.2615 
     17 C17       -72.7825   30.8326  -73.7894 C.3       11 UNK        -0.0865 
     18 CA        -71.8172   29.7362  -73.2595 C.3       10 UNK         0.0862 
     19 C         -72.1406   29.3399  -71.7889 C.2       10 UNK         0.5551 
     20 N         -72.8116   28.2231  -71.5422 N.am      10 UNK        -0.7319 
     21 O         -71.7647   30.0553  -70.8633 O.2       10 UNK        -0.5018 
     22 N         -71.6626   28.6171  -74.2074 N.am      10 UNK        -0.4509 
     23 C         -70.7586   27.6321  -74.0866 C.2       10 UNK         0.4899 
     24 O         -69.9484   27.5556  -73.1620 O.2       10 UNK        -0.4839 
     25 CA        -70.7003   26.5676  -75.1977 C.3       9 UNK         0.0222 
     26 CB        -71.5937   25.3593  -74.8827 C.3       9 UNK        -0.1966 
     27 N         -71.0276   27.0977  -76.5223 N.am      9 UNK        -0.4218 
     28 C         -70.1924   27.8615  -77.2427 C.2       9 UNK         0.5020 
     29 O         -69.0551   28.1627  -76.8762 O.2       9 UNK        -0.5274 
     30 CA        -70.6843   28.3711  -78.6094 C.3       8 UNK         0.0270 
     31 CB        -70.1136   27.5033  -79.7434 C.3       8 UNK        -0.1976 
     32 N         -72.1411   28.4356  -78.7435 N.am      8 UNK        -0.4313 
     33 C         -72.9445   29.2470  -78.0440 C.2       8 UNK         0.5041 
     34 O         -72.5431   30.0184  -77.1731 O.2       8 UNK        -0.5577 
     35 CA        -74.4467   29.2084  -78.3743 C.3       7 UNK         0.0284 
     36 CB        -74.7939   28.4425  -79.6728 C.3       7 UNK        -0.1958 
     37 N         -75.2500   28.7023  -77.2584 N.am      7 UNK        -0.4454 
     38 C         -75.1536   27.5096  -76.6532 C.2       7 UNK         0.5089 
     39 O         -74.2852   26.6691  -76.9055 O.2       7 UNK        -0.5125 
     40 CA        -76.2965   27.1987  -75.6684 C.3       6 UNK         0.0408 
     41 CB        -77.5821   26.9007  -76.4528 C.3       6 UNK        -0.1791 
     42 N         -76.0448   26.0635  -74.7833 N.am      6 UNK        -0.4762 
     43 C         -75.1388   26.0292  -73.7973 C.2       6 UNK         0.5007 
     44 O         -74.3488   26.9405  -73.5577 O.2       6 UNK        -0.5032 
     45 CA        -75.1034   24.7754  -72.8985 C.3       5 UNK         0.0783 
     46 C46       -75.6141   25.0949  -71.4701 C.3       11 UNK        -0.0857 
     47 S47       -77.4288   25.3061  -71.3625 S.3       11 UNK        -0.2512 
     48 C48       -77.5944   26.8483  -70.4119 C.3       11 UNK         0.0225 
     49 N         -75.8059   23.6239  -73.4716 N.am      5 UNK        -0.4615 
     50 C         -75.3750   22.8785  -74.4956 C.2       4 UNK         0.5053 
     51 O         -74.2808   23.0338  -75.0363 O.2       4 UNK        -0.5105 
     52 CA        -76.3145   21.7670  -75.0044 C.3       4 UNK         0.0263 
     53 CB        -75.7887   20.3861  -74.5784 C.3       4 UNK        -0.1981 
     54 N         -77.7136   21.8975  -74.5737 N.am      4 UNK        -0.4224 
     55 C         -78.5512   22.8700  -74.9588 C.2       3 UNK         0.4895 
     56 O         -78.2215   23.8120  -75.6817 O.2       3 UNK        -0.5091 
     57 CA        -79.9828   22.7859  -74.4174 C.3       3 UNK         0.0250 
     58 CB        -80.0662   23.3429  -72.9851 C.3       3 UNK        -0.1996 
     59 N         -80.8788   23.5412  -75.2886 N.am      3 UNK        -0.4254 
     60 C         -82.1922   23.3295  -75.4247 C.2       2 UNK         0.5004 
     61 O         -82.8052   22.4489  -74.8171 O.2       2 UNK        -0.5226 
     62 CA        -82.9484   24.2747  -76.3803 C.3       2 UNK         0.0269 
     63 CB        -84.4237   23.8731  -76.5701 C.3       2 UNK        -0.1926 
     64 N         -82.8961   25.6596  -75.9049 N.am      2 UNK        -0.4687 
     65 C         -81.8636   26.4956  -76.0817 C.2       1 UNK         0.5165 
     66 O         -80.8671   26.1843  -76.7359 O.2       1 UNK        -0.5079 
     67 H67       -84.2292   26.5569  -71.7794 H         1 UNK         0.0900 
     68 H68       -84.5541   28.1854  -72.3782 H         1 UNK         0.0900 
     69 H69       -83.3179   27.9297  -71.1452 H         1 UNK         0.0900 
     70 H70       -83.6801   28.5322  -74.3924 H         1 UNK         0.2959 
     71 H71       -82.4386   28.5176  -76.2022 H         1 UNK         0.1079 
     72 H72       -80.0295   27.9515  -74.3967 H         1 UNK         0.0837 
     73 H73       -79.9506   28.4736  -76.0565 H         1 UNK         0.0837 
     74 H74       -81.1760   29.6753  -72.4464 H         1 UNK         0.0685 
     75 H75       -80.4860   31.2708  -72.5274 H         1 UNK         0.0685 
     76 H76       -79.8054   27.9751  -71.5237 H         1 UNK         0.1434 
     77 H77       -75.5577   28.4745  -71.2460 H         1 UNK         0.1329 
     78 H78       -77.9221   31.3728  -73.3430 H         1 UNK         0.1335 
     79 H79       -75.5919   31.8738  -72.7158 H         1 UNK         0.0680 
     80 H80       -74.6830   30.7440  -71.7459 H         1 UNK         0.0680 
     81 H81       -72.3925   31.2266  -74.7290 H         1 UNK         0.1032 
     82 H82       -72.8046   31.6874  -73.1107 H         1 UNK         0.1032 
     83 H83       -70.8314   30.2033  -73.2147 H         1 UNK         0.0461 
     84 H84       -73.2130   27.7016  -72.3186 H         1 UNK         0.3453 
     85 H85       -73.0002   27.9556  -70.5909 H         1 UNK         0.3453 
     86 H86       -72.3074   28.6075  -74.9853 H         1 UNK         0.2984 
     87 H87       -69.6715   26.2013  -75.2254 H         1 UNK         0.0554 
     88 H88       -71.3450   24.5095  -75.5184 H         1 UNK         0.0847 
     89 H89       -72.6455   25.5847  -75.0419 H         1 UNK         0.0847 
     90 H90       -71.4764   25.0349  -73.8478 H         1 UNK         0.0847 
     91 H91       -71.9587   26.9149  -76.8777 H         1 UNK         0.3141 
     92 H92       -70.2986   29.3858  -78.7301 H         1 UNK         0.0743 
     93 H93       -69.0246   27.4604  -79.6921 H         1 UNK         0.0784 
     94 H94       -70.4821   26.4779  -79.6919 H         1 UNK         0.0784 
     95 H95       -70.3728   27.9064  -80.7226 H         1 UNK         0.0784 
     96 H96       -72.5636   27.8214  -79.4247 H         1 UNK         0.3213 
     97 H97       -74.7447   30.2479  -78.5203 H         1 UNK         0.0855 
     98 H98       -74.2469   28.8423  -80.5279 H         1 UNK         0.0814 
     99 H99       -75.8545   28.5378  -79.9063 H         1 UNK         0.0814 
    100 H100      -74.5730   27.3770  -79.5999 H         1 UNK         0.0814 
    101 H101      -75.9658   29.3343  -76.9281 H         1 UNK         0.3105 
    102 H102      -76.4632   28.0758  -75.0393 H         1 UNK         0.0547 
    103 H103      -77.4499   26.0610  -77.1365 H         1 UNK         0.0837 
    104 H104      -78.4008   26.6481  -75.7802 H         1 UNK         0.0837 
    105 H105      -77.8974   27.7571  -77.0489 H         1 UNK         0.0837 
    106 H106      -76.6272   25.2483  -74.9285 H         1 UNK         0.3020 
    107 H107      -74.0482   24.5045  -72.8154 H         1 UNK         0.1245 
    108 H108      -75.1074   25.9747  -71.0696 H         1 UNK         0.0781 
    109 H109      -75.3422   24.2774  -70.8008 H         1 UNK         0.0781 
    110 H110      -76.7767   26.9399  -69.6955 H         1 UNK         0.0836 
    111 H111      -78.5027   26.7806  -69.8111 H         1 UNK         0.0836 
    112 H112      -76.7179   23.4335  -73.0831 H         1 UNK         0.3022 
    113 H113      -76.2991   21.8154  -76.0954 H         1 UNK         0.0747 
    114 H114      -76.3854   19.5823  -75.0101 H         1 UNK         0.0793 
    115 H115      -74.7611   20.2379  -74.9138 H         1 UNK         0.0793 
    116 H116      -75.7970   20.2679  -73.4940 H         1 UNK         0.0793 
    117 H117      -78.0628   21.1713  -73.9641 H         1 UNK         0.3047 
    118 H118      -80.2840   21.7360  -74.4189 H         1 UNK         0.0822 
    119 H119      -79.3753   22.8310  -72.3143 H         1 UNK         0.0807 
    120 H120      -81.0670   23.2230  -72.5702 H         1 UNK         0.0807 
    121 H121      -79.8261   24.4068  -72.9587 H         1 UNK         0.0807 
    122 H122      -80.4352   24.2814  -75.8256 H         1 UNK         0.2946 
    123 H123      -82.4587   24.2080  -77.3549 H         1 UNK         0.1144 
    124 H124      -84.5052   22.8520  -76.9454 H         1 UNK         0.0793 
    125 H125      -84.9213   24.5216  -77.2914 H         1 UNK         0.0793 
    126 H126      -84.9812   23.9225  -75.6338 H         1 UNK         0.0793 
    127 H127      -83.6628   25.9708  -75.3261 H         1 UNK         0.2896 
@<TRIPOS>BOND
     1    1    2 1    
     2    1   67 1    
     3    1   68 1    
     4    1   69 1    
     5    2    3 2    
     6    2    4 am   BACKBONE|DICT|INTERRES
     7    4    5 1    
     8    4   70 1    
     9    5    6 1    
    10    5   65 1    
    11    5   71 1    
    12    6    7 1    
    13    6   72 1    
    14    6   73 1    
    15    7    8 1    
    16    8    9 1    
    17    8   74 1    
    18    8   75 1    
    19    9   10 ar   
    20    9   14 ar   
    21   10   11 ar   
    22   10   76 1    
    23   11   12 ar   
    24   11   48 1    
    25   12   13 ar   
    26   12   77 1    
    27   13   14 ar   
    28   13   15 1    
    29   14   78 1    
    30   15   16 1    
    31   15   79 1    
    32   15   80 1    
    33   16   17 1    
    34   17   18 1    
    35   17   81 1    
    36   17   82 1    
    37   18   19 1    
    38   18   22 1    
    39   18   83 1    
    40   19   20 am   BACKBONE|DICT|INTERRES
    41   19   21 2    
    42   20   84 1    
    43   20   85 1    
    44   22   23 am   BACKBONE|DICT|INTERRES
    45   22   86 1    
    46   23   24 2    
    47   23   25 1    
    48   25   26 1    
    49   25   27 1    
    50   25   87 1    
    51   26   88 1    
    52   26   89 1    
    53   26   90 1    
    54   27   28 am   BACKBONE|DICT|INTERRES
    55   27   91 1    
    56   28   29 2    
    57   28   30 1    
    58   30   31 1    
    59   30   32 1    
    60   30   92 1    
    61   31   93 1    
    62   31   94 1    
    63   31   95 1    
    64   32   33 am   BACKBONE|DICT|INTERRES
    65   32   96 1    
    66   33   34 2    
    67   33   35 1    
    68   35   36 1    
    69   35   37 1    
    70   35   97 1    
    71   36   98 1    
    72   36   99 1    
    73   36  100 1    
    74   37   38 am   BACKBONE|DICT|INTERRES
    75   37  101 1    
    76   38   39 2    
    77   38   40 1    
    78   40   41 1    
    79   40   42 1    
    80   40  102 1    
    81   41  103 1    
    82   41  104 1    
    83   41  105 1    
    84   42   43 am   BACKBONE|DICT|INTERRES
    85   42  106 1    
    86   43   44 2    
    87   43   45 1    
    88   45   46 1    
    89   45   49 1    
    90   45  107 1    
    91   46   47 1    
    92   46  108 1    
    93   46  109 1    
    94   47   48 1    
    95   48  110 1    
    96   48  111 1    
    97   49   50 am   BACKBONE|DICT|INTERRES
    98   49  112 1    
    99   50   51 2    
   100   50   52 1    
   101   52   53 1    
   102   52   54 1    
   103   52  113 1    
   104   53  114 1    
   105   53  115 1    
   106   53  116 1    
   107   54   55 am   BACKBONE|DICT|INTERRES
   108   54  117 1    
   109   55   56 2    
   110   55   57 1    
   111   57   58 1    
   112   57   59 1    
   113   57  118 1    
   114   58  119 1    
   115   58  120 1    
   116   58  121 1    
   117   59   60 am   BACKBONE|DICT|INTERRES
   118   59  122 1    
   119   60   61 2    
   120   60   62 1    
   121   62   63 1    
   122   62   64 1    
   123   62  123 1    
   124   63  124 1    
   125   63  125 1    
   126   63  126 1    
   127   64   65 am   BACKBONE|DICT|INTERRES
   128   64  127 1    
   129   65   66 2    
@<TRIPOS>SUBSTRUCTURE
     1 UNK         1 GROUP             0       ****    0 ROOT    
