@<TRIPOS>MOLECULE
3R135
127   129    1
SMALL
USER_CHARGES


@<TRIPOS>ATOM
      1 CA        -78.8004   31.8675  -73.1554 C.3       0 UNK        -0.1998 
      2 C         -80.3019   31.8600  -73.4184 C.2       0 UNK         0.4909 
      3 O         -80.8347   32.8659  -73.8844 O.2       0 UNK        -0.5240 
      4 N         -81.0307   30.7726  -73.1441 N.am      1 UNK        -0.4739 
      5 CA        -80.5665   29.4655  -72.6682 C.3       1 UNK         0.0864 
      6 C6        -81.0122   29.1933  -71.2083 C.3       11 UNK        -0.0881 
      7 S7        -80.2522   30.3490  -70.0188 S.3       11 UNK        -0.2682 
      8 C8        -79.2617   29.2334  -68.9742 C.3       11 UNK         0.0289 
      9 C9        -78.1875   28.4819  -69.7508 C.ar      11 UNK        -0.0687 
     10 C10       -78.1807   27.0826  -69.7617 C.ar      11 UNK        -0.0823 
     11 C11       -77.1666   26.3804  -70.4206 C.ar      11 UNK        -0.0830 
     12 C12       -76.1629   27.0925  -71.0826 C.ar      11 UNK        -0.1021 
     13 C13       -76.1785   28.4887  -71.1123 C.ar      11 UNK        -0.0753 
     14 C14       -77.1831   29.1799  -70.4298 C.ar      11 UNK        -0.0933 
     15 C15       -75.1082   29.2424  -71.8882 C.3       11 UNK         0.0166 
     16 S16       -75.7355   29.8732  -73.4779 S.3       11 UNK        -0.2615 
     17 C17       -76.3813   28.3536  -74.2629 C.3       11 UNK        -0.0865 
     18 CA        -76.5209   28.4407  -75.8039 C.3       10 UNK         0.0862 
     19 C         -77.6434   29.4194  -76.2575 C.2       10 UNK         0.5551 
     20 N         -77.3678   30.3989  -77.1099 N.am      10 UNK        -0.7319 
     21 O         -78.7871   29.2826  -75.8344 O.2       10 UNK        -0.5018 
     22 N         -75.2160   28.6495  -76.4432 N.am      10 UNK        -0.4509 
     23 C         -74.8665   28.2247  -77.6618 C.2       10 UNK         0.4899 
     24 O         -75.6205   27.6033  -78.4093 O.2       10 UNK        -0.4839 
     25 CA        -73.4238   28.5037  -78.1251 C.3       9 UNK         0.0222 
     26 CB        -73.3436   29.8004  -78.9544 C.3       9 UNK        -0.1966 
     27 N         -72.4224   28.4737  -77.0460 N.am      9 UNK        -0.4218 
     28 C         -72.2508   29.3342  -76.0293 C.2       9 UNK         0.5020 
     29 O         -72.9272   30.3515  -75.8768 O.2       9 UNK        -0.5274 
     30 CA        -71.2053   28.9454  -74.9723 C.3       8 UNK         0.0270 
     31 CB        -71.3407   29.7486  -73.6641 C.3       8 UNK        -0.1976 
     32 N         -71.3186   27.5157  -74.6836 N.am      8 UNK        -0.4313 
     33 C         -70.2996   26.6518  -74.6483 C.2       8 UNK         0.5041 
     34 O         -69.1156   26.9780  -74.7456 O.2       8 UNK        -0.5577 
     35 CA        -70.6595   25.1620  -74.5033 C.3       7 UNK         0.0284 
     36 CB        -70.6636   24.7584  -73.0199 C.3       7 UNK        -0.1958 
     37 N         -71.9328   24.7509  -75.1125 N.am      7 UNK        -0.4454 
     38 C         -72.3199   24.9317  -76.3818 C.2       7 UNK         0.5089 
     39 O         -71.6916   25.6159  -77.1905 O.2       7 UNK        -0.5125 
     40 CA        -73.6213   24.2475  -76.8531 C.3       6 UNK         0.0408 
     41 CB        -73.2952   22.9207  -77.5625 C.3       6 UNK        -0.1791 
     42 N         -74.6855   24.0403  -75.8560 N.am      6 UNK        -0.4762 
     43 C         -74.6746   23.3200  -74.7219 C.2       6 UNK         0.5007 
     44 O         -73.6684   22.7904  -74.2507 O.2       6 UNK        -0.5032 
     45 CA        -76.0222   23.1593  -73.9895 C.3       5 UNK         0.0783 
     46 C46       -76.2462   24.3421  -73.0216 C.3       11 UNK        -0.0857 
     47 S47       -77.7138   24.1265  -71.9595 S.3       11 UNK        -0.2512 
     48 C48       -77.1408   24.8566  -70.3908 C.3       11 UNK         0.0225 
     49 N         -77.1297   22.9879  -74.9362 N.am      5 UNK        -0.4615 
     50 C         -77.3025   21.8922  -75.6930 C.2       4 UNK         0.5053 
     51 O         -76.5909   20.8908  -75.6079 O.2       4 UNK        -0.5105 
     52 CA        -78.4506   21.8925  -76.7205 C.3       4 UNK         0.0263 
     53 CB        -79.6496   21.0955  -76.1809 C.3       4 UNK        -0.1981 
     54 N         -78.9047   23.2283  -77.1078 N.am      4 UNK        -0.4224 
     55 C         -78.1739   24.1478  -77.7549 C.2       3 UNK         0.4895 
     56 O         -77.0356   23.9473  -78.1771 O.2       3 UNK        -0.5091 
     57 CA        -78.8092   25.5408  -77.9224 C.3       3 UNK         0.0250 
     58 CB        -79.4090   25.6937  -79.3289 C.3       3 UNK        -0.1996 
     59 N         -79.8375   25.8500  -76.9189 N.am      3 UNK        -0.4254 
     60 C         -79.6184   25.9316  -75.5988 C.2       2 UNK         0.5004 
     61 O         -78.5208   25.7374  -75.0722 O.2       2 UNK        -0.5226 
     62 CA        -80.8320   26.2197  -74.7131 C.3       2 UNK         0.0269 
     63 CB        -81.2433   24.9602  -73.9321 C.3       2 UNK        -0.1926 
     64 N         -80.4709   27.2775  -73.7741 N.am      2 UNK        -0.4687 
     65 C         -81.1682   28.4065  -73.6077 C.2       1 UNK         0.5165 
     66 O         -82.2614   28.6203  -74.1423 O.2       1 UNK        -0.5079 
     67 H67       -78.5575   31.4540  -72.1783 H         1 UNK         0.0900 
     68 H68       -78.4112   32.8848  -73.1858 H         1 UNK         0.0900 
     69 H69       -78.2851   31.2908  -73.9212 H         1 UNK         0.0900 
     70 H70       -82.0103   30.7743  -73.3961 H         1 UNK         0.2959 
     71 H71       -79.4804   29.3843  -72.7388 H         1 UNK         0.1079 
     72 H72       -82.0965   29.2817  -71.1158 H         1 UNK         0.0837 
     73 H73       -80.7716   28.1690  -70.9173 H         1 UNK         0.0837 
     74 H74       -78.7814   29.8224  -68.1917 H         1 UNK         0.0685 
     75 H75       -79.9339   28.5406  -68.4654 H         1 UNK         0.0685 
     76 H76       -78.9547   26.5378  -69.2384 H         1 UNK         0.1434 
     77 H77       -75.3679   26.5633  -71.5858 H         1 UNK         0.1329 
     78 H78       -77.1875   30.2612  -70.4330 H         1 UNK         0.1335 
     79 H79       -74.7449   30.0808  -71.2923 H         1 UNK         0.0680 
     80 H80       -74.2451   28.6016  -72.0736 H         1 UNK         0.0680 
     81 H81       -77.3391   28.0978  -73.8067 H         1 UNK         0.1032 
     82 H82       -75.7113   27.5296  -74.0174 H         1 UNK         0.1032 
     83 H83       -76.8652   27.4585  -76.1268 H         1 UNK         0.0461 
     84 H84       -76.4305   30.5218  -77.4563 H         1 UNK         0.3453 
     85 H85       -78.1033   31.0229  -77.4002 H         1 UNK         0.3453 
     86 H86       -74.5604   29.2386  -75.9391 H         1 UNK         0.2984 
     87 H87       -73.1519   27.6796  -78.7867 H         1 UNK         0.0554 
     88 H88       -74.0059   29.7476  -79.8195 H         1 UNK         0.0847 
     89 H89       -72.3345   29.9693  -79.3298 H         1 UNK         0.0847 
     90 H90       -73.6384   30.6776  -78.3780 H         1 UNK         0.0847 
     91 H91       -71.8507   27.6330  -77.0444 H         1 UNK         0.3141 
     92 H92       -70.2305   29.1672  -75.4117 H         1 UNK         0.0743 
     93 H93       -70.5875   29.4486  -72.9355 H         1 UNK         0.0784 
     94 H94       -72.3218   29.6136  -73.2088 H         1 UNK         0.0784 
     95 H95       -71.2088   30.8161  -73.8448 H         1 UNK         0.0784 
     96 H96       -72.2553   27.1461  -74.6001 H         1 UNK         0.3213 
     97 H97       -69.8732   24.5963  -75.0073 H         1 UNK         0.0855 
     98 H98       -71.4610   25.2581  -72.4684 H         1 UNK         0.0814 
     99 H99       -69.7198   25.0209  -72.5395 H         1 UNK         0.0814 
    100 H100      -70.7970   23.6829  -72.9011 H         1 UNK         0.0814 
    101 H101      -72.5069   24.1092  -74.5685 H         1 UNK         0.3105 
    102 H102      -74.0582   24.9146  -77.5984 H         1 UNK         0.0547 
    103 H103      -72.5739   23.0727  -78.3666 H         1 UNK         0.0837 
    104 H104      -72.8687   22.1876  -76.8770 H         1 UNK         0.0837 
    105 H105      -74.1886   22.4828  -78.0083 H         1 UNK         0.0837 
    106 H106      -75.5827   24.4158  -76.1344 H         1 UNK         0.3020 
    107 H107      -75.9496   22.2461  -73.3937 H         1 UNK         0.1245 
    108 H108      -75.3690   24.4538  -72.3824 H         1 UNK         0.0781 
    109 H109      -76.3545   25.2781  -73.5704 H         1 UNK         0.0781 
    110 H110      -76.1364   24.5024  -70.1547 H         1 UNK         0.0836 
    111 H111      -77.7810   24.4874  -69.5882 H         1 UNK         0.0836 
    112 H112      -77.7565   23.7790  -75.0371 H         1 UNK         0.3022 
    113 H113      -78.0811   21.3945  -77.6195 H         1 UNK         0.0747 
    114 H114      -80.4412   21.0135  -76.9261 H         1 UNK         0.0793 
    115 H115      -79.3545   20.0800  -75.9127 H         1 UNK         0.0793 
    116 H116      -80.0726   21.5579  -75.2880 H         1 UNK         0.0793 
    117 H117      -79.8322   23.4916  -76.8104 H         1 UNK         0.3047 
    118 H118      -78.0082   26.2741  -77.8144 H         1 UNK         0.0822 
    119 H119      -79.7784   26.7060  -79.4949 H         1 UNK         0.0807 
    120 H120      -80.2347   25.0007  -79.4953 H         1 UNK         0.0807 
    121 H121      -78.6580   25.4969  -80.0955 H         1 UNK         0.0807 
    122 H122      -80.7690   26.0200  -77.2712 H         1 UNK         0.2946 
    123 H123      -81.6660   26.5285  -75.3477 H         1 UNK         0.1144 
    124 H124      -82.1081   25.1549  -73.2977 H         1 UNK         0.0793 
    125 H125      -80.4365   24.5987  -73.2934 H         1 UNK         0.0793 
    126 H126      -81.5133   24.1487  -74.6089 H         1 UNK         0.0793 
    127 H127      -79.5643   27.1689  -73.3392 H         1 UNK         0.2896 
@<TRIPOS>BOND
     1    1    2 1    
     2    1   67 1    
     3    1   68 1    
     4    1   69 1    
     5    2    3 2    
     6    2    4 am   BACKBONE|DICT|INTERRES
     7    4    5 1    
     8    4   70 1    
     9    5    6 1    
    10    5   65 1    
    11    5   71 1    
    12    6    7 1    
    13    6   72 1    
    14    6   73 1    
    15    7    8 1    
    16    8    9 1    
    17    8   74 1    
    18    8   75 1    
    19    9   10 ar   
    20    9   14 ar   
    21   10   11 ar   
    22   10   76 1    
    23   11   12 ar   
    24   11   48 1    
    25   12   13 ar   
    26   12   77 1    
    27   13   14 ar   
    28   13   15 1    
    29   14   78 1    
    30   15   16 1    
    31   15   79 1    
    32   15   80 1    
    33   16   17 1    
    34   17   18 1    
    35   17   81 1    
    36   17   82 1    
    37   18   19 1    
    38   18   22 1    
    39   18   83 1    
    40   19   20 am   BACKBONE|DICT|INTERRES
    41   19   21 2    
    42   20   84 1    
    43   20   85 1    
    44   22   23 am   BACKBONE|DICT|INTERRES
    45   22   86 1    
    46   23   24 2    
    47   23   25 1    
    48   25   26 1    
    49   25   27 1    
    50   25   87 1    
    51   26   88 1    
    52   26   89 1    
    53   26   90 1    
    54   27   28 am   BACKBONE|DICT|INTERRES
    55   27   91 1    
    56   28   29 2    
    57   28   30 1    
    58   30   31 1    
    59   30   32 1    
    60   30   92 1    
    61   31   93 1    
    62   31   94 1    
    63   31   95 1    
    64   32   33 am   BACKBONE|DICT|INTERRES
    65   32   96 1    
    66   33   34 2    
    67   33   35 1    
    68   35   36 1    
    69   35   37 1    
    70   35   97 1    
    71   36   98 1    
    72   36   99 1    
    73   36  100 1    
    74   37   38 am   BACKBONE|DICT|INTERRES
    75   37  101 1    
    76   38   39 2    
    77   38   40 1    
    78   40   41 1    
    79   40   42 1    
    80   40  102 1    
    81   41  103 1    
    82   41  104 1    
    83   41  105 1    
    84   42   43 am   BACKBONE|DICT|INTERRES
    85   42  106 1    
    86   43   44 2    
    87   43   45 1    
    88   45   46 1    
    89   45   49 1    
    90   45  107 1    
    91   46   47 1    
    92   46  108 1    
    93   46  109 1    
    94   47   48 1    
    95   48  110 1    
    96   48  111 1    
    97   49   50 am   BACKBONE|DICT|INTERRES
    98   49  112 1    
    99   50   51 2    
   100   50   52 1    
   101   52   53 1    
   102   52   54 1    
   103   52  113 1    
   104   53  114 1    
   105   53  115 1    
   106   53  116 1    
   107   54   55 am   BACKBONE|DICT|INTERRES
   108   54  117 1    
   109   55   56 2    
   110   55   57 1    
   111   57   58 1    
   112   57   59 1    
   113   57  118 1    
   114   58  119 1    
   115   58  120 1    
   116   58  121 1    
   117   59   60 am   BACKBONE|DICT|INTERRES
   118   59  122 1    
   119   60   61 2    
   120   60   62 1    
   121   62   63 1    
   122   62   64 1    
   123   62  123 1    
   124   63  124 1    
   125   63  125 1    
   126   63  126 1    
   127   64   65 am   BACKBONE|DICT|INTERRES
   128   64  127 1    
   129   65   66 2    
@<TRIPOS>SUBSTRUCTURE
     1 UNK         1 GROUP             0       ****    0 ROOT    
